* 
* Copyright 2022 by Artisan Components, Inc.
* This file has been provided pursuant to a License Agreement
* containing restrictions on its use.  This file contains valuable
* trade secrets and proprietary information of Artisan Components,
* Inc. and is protected by law.
* 
* Generated by bif2cdl v3.4.15
* Version: r0p0-00eac0
* Name: sram_sp_hdc_svt_rvt_hvt Compiler|TSMC cln65gplus 65nm Process, 0.525um2 Bitcell
* Comment: 
* Configuration:  -instname "icache_tag_store" -words 512 -bits 21 \
* Configuration: -frequency 50 -mux 4 -pipeline off -write_mask on \
* Configuration: -wp_size 1 -write_thru on -top_layer "m5-m9" -powe\
* Configuration: r_type otc -redundancy off -rcols 2 -rrows 2 -bmux\
* Configuration:  off -ser none -back_biasing off -power_gating off\
* Configuration:  -retention on -ema on -atf off -cust_comment "" -\
* Configuration: bus_notation on -left_bus_delim "[" -right_bus_del\
* Configuration: im "]" -pwr_gnd_rename "VDDPE:VDDPE,VDDCE:VDDCE,VS\
* Configuration: SE:VSSE" -prefix "" -name_case upper -check_instna\
* Configuration: me off -diodes on -drive 6 -dnw off -asvm on -corn\
* Configuration: ers ss_0p90v_0p90v_125c,ss_0p90v_0p90v_m40c,ff_1p1\
* Configuration: 0v_1p10v_m40c,ff_1p10v_1p10v_125c,ff_1p10v_1p10v_0\
* Configuration: c,tt_1p00v_1p00v_25c
* Codefile: 
* 
*
** begin lvs.header
** $Revision: 1.1 $
** end lvs.header
*.BIPOLAR
*.DIOAREA
*.DIOPERI
*
****
.SUBCKT icache_tag_storeFPIO4 BWEI BWEN CREN D DNI Q Q_ RET RETN_TERM TIEHIGH
+  TIELOW VSSE VDDPE VDDCE
** icache_tag_storeFPIO4: 11 flat devices **
D10 VSSE Q NDIO 1.024e-07U 1.28U $name=/D4
D7 VSSE BWEN NDIO 1.024e-07U 1.28U $name=/D7
D8 VSSE D NDIO 1.024e-07U 1.28U $name=/D6
D9 VSSE CREN NDIO 1.024e-07U 1.28U $name=/D5
M0 Q Q_ VSSE VSSE NCH W=2.8U L=0.06U M=1 $name=/qdrv/N00
M1 VDDPE Q_ Q VDDCE PCH W=4.14U L=0.06U M=1 $name=/qdrv/P00
M2 Q RET VSSE VSSE NCH_HVT W=0.15U L=0.06U M=1 $name=/N15/N00
M3 DNI D VSSE VSSE NCH_HVT W=0.15U L=0.06U M=1 $name=/I238/N00
M4 VDDPE D DNI VDDCE PCH_HVT W=0.15U L=0.06U M=1 $name=/I238/P00
M5 BWEI BWEN VSSE VSSE NCH_HVT W=0.25U L=0.06U M=1 $name=/I237/N00
M6 VDDPE BWEN BWEI VDDCE PCH_HVT W=0.5U L=0.06U M=1 $name=/I237/P00
.ENDS icache_tag_storeFPIO4
****
.SUBCKT icache_tag_storeFPIO8RR11B1 BWEI_0 BWEI_1 BWEI_2 BWEI_3 BWEI_4 BWEI_5
+  BWEI_6 BWEI_7 BWEI_8 BWEI_9 BWEI_10 BWEN_0 BWEN_1 BWEN_2 BWEN_3 BWEN_4
+  BWEN_5 BWEN_6 BWEN_7 BWEN_8 BWEN_9 BWEN_10 CREN DNI_0 DNI_1 DNI_2 DNI_3
+  DNI_4 DNI_5 DNI_6 DNI_7 DNI_8 DNI_9 DNI_10 D_0 D_1 D_2 D_3 D_4 D_5 D_6 D_7
+  D_8 D_9 D_10 Q_0 Q_1 Q_2 Q_3 Q_4 Q_5 Q_6 Q_7 Q_8 Q_9 Q_10 Q__0 Q__1 Q__2
+  Q__3 Q__4 Q__5 Q__6 Q__7 Q__8 Q__9 Q__10 RETN_TERM_0 RETN_TERM_1
+  RETN_TERM_2 RETN_TERM_3 RETN_TERM_4 RETN_TERM_5 RETN_TERM_6 RETN_TERM_7
+  RETN_TERM_8 RETN_TERM_9 RETN_TERM_10 RET_0 RET_1 RET_2 RET_3 RET_4 RET_5
+  RET_6 RET_7 RET_8 RET_9 RET_10 TIELOW VSSE VDDPE VDDCE
** icache_tag_storeFPIO8RR11B1: 121 flat devices **
XRIGHTIO0 BWEI_0 BWEN_0 CREN D_0 DNI_0 Q_0 Q__0 RET_0 RETN_TERM_0 CREN TIELOW
+  VSSE VDDPE VDDCE icache_tag_storeFPIO4
XRIGHTIO1 BWEI_1 BWEN_1 CREN D_1 DNI_1 Q_1 Q__1 RET_1 RETN_TERM_1 CREN TIELOW
+  VSSE VDDPE VDDCE icache_tag_storeFPIO4
XRIGHTIO2 BWEI_2 BWEN_2 CREN D_2 DNI_2 Q_2 Q__2 RET_2 RETN_TERM_2 CREN TIELOW
+  VSSE VDDPE VDDCE icache_tag_storeFPIO4
XRIGHTIO3 BWEI_3 BWEN_3 CREN D_3 DNI_3 Q_3 Q__3 RET_3 RETN_TERM_3 CREN TIELOW
+  VSSE VDDPE VDDCE icache_tag_storeFPIO4
XRIGHTIO4 BWEI_4 BWEN_4 CREN D_4 DNI_4 Q_4 Q__4 RET_4 RETN_TERM_4 CREN TIELOW
+  VSSE VDDPE VDDCE icache_tag_storeFPIO4
XRIGHTIO5 BWEI_5 BWEN_5 CREN D_5 DNI_5 Q_5 Q__5 RET_5 RETN_TERM_5 CREN TIELOW
+  VSSE VDDPE VDDCE icache_tag_storeFPIO4
XRIGHTIO6 BWEI_6 BWEN_6 CREN D_6 DNI_6 Q_6 Q__6 RET_6 RETN_TERM_6 CREN TIELOW
+  VSSE VDDPE VDDCE icache_tag_storeFPIO4
XRIGHTIO7 BWEI_7 BWEN_7 CREN D_7 DNI_7 Q_7 Q__7 RET_7 RETN_TERM_7 CREN TIELOW
+  VSSE VDDPE VDDCE icache_tag_storeFPIO4
XRIGHTIO8 BWEI_8 BWEN_8 CREN D_8 DNI_8 Q_8 Q__8 RET_8 RETN_TERM_8 CREN TIELOW
+  VSSE VDDPE VDDCE icache_tag_storeFPIO4
XRIGHTIO9 BWEI_9 BWEN_9 CREN D_9 DNI_9 Q_9 Q__9 RET_9 RETN_TERM_9 CREN TIELOW
+  VSSE VDDPE VDDCE icache_tag_storeFPIO4
XRIGHTIOEXT10 BWEI_10 BWEN_10 CREN D_10 DNI_10 Q_10 Q__10 RET_10 RETN_TERM_10
+  CREN TIELOW VSSE VDDPE VDDCE icache_tag_storeFPIO4
.ENDS icache_tag_storeFPIO8RR11B1
****
.SUBCKT icache_tag_storeFPAL4_CTRL AI0 AI0N AI1 AI1N AI2 AI2N AI3 AI3N AI4
+  AI4N AI5 AI5N AI6 AI6N AI7 AI7N AI8 AI8N AI9 AI9N AI10 AI10N AI11 AI11N
+  AI12 AI12N AI13 AI13N BWEN CEI CEN CLK EMA0 EMA1 EMA2 IRET IRETN RDT RETN
+  STOV TIEHIGH TIELOW WBT WEI WEN VSSE VDDPE VDDCE
** icache_tag_storeFPAL4_CTRL: 54 flat devices **
D10 VSSE CLK NDIO 1.024e-07U 1.28U $name=/I2449/D1
D11 VSSE CEN NDIO 1.024e-07U 1.28U $name=/I2449/D0
D4 VSSE STOV NDIO 1.024e-07U 1.28U $name=/I2449/D7
D40 VSSE AI5 NDIO 1.024e-07U 1.28U $name=/I2450/D9
D41 VSSE AI4 NDIO 1.024e-07U 1.28U $name=/I2450/D8
D42 VSSE AI6 NDIO 1.024e-07U 1.28U $name=/I2450/D7
D43 VSSE AI7 NDIO 1.024e-07U 1.28U $name=/I2450/D6
D44 VSSE AI9 NDIO 1.024e-07U 1.28U $name=/I2450/D5
D45 VSSE AI8 NDIO 1.024e-07U 1.28U $name=/I2450/D4
D46 VSSE AI10 NDIO 1.024e-07U 1.28U $name=/I2450/D3
D47 VSSE AI11 NDIO 1.024e-07U 1.28U $name=/I2450/D2
D48 VSSE AI1 NDIO 1.024e-07U 1.28U $name=/I2450/D13
D49 VSSE AI0 NDIO 1.024e-07U 1.28U $name=/I2450/D12
D5 VSSE EMA0 NDIO 1.024e-07U 1.28U $name=/I2449/D6
D50 VSSE AI2 NDIO 1.024e-07U 1.28U $name=/I2450/D11
D51 VSSE AI3 NDIO 1.024e-07U 1.28U $name=/I2450/D10
D52 VSSE AI12 NDIO 1.024e-07U 1.28U $name=/I2450/D1
D53 VSSE AI13 NDIO 1.024e-07U 1.28U $name=/I2450/D0
D6 VSSE RETN NDIO 1.024e-07U 1.28U $name=/I2449/D3
D7 VSSE WEN NDIO 1.024e-07U 1.28U $name=/I2449/D2
D8 VSSE WBT NDIO 1.024e-07U 1.28U $name=/I2449/D12
D9 VSSE RDT NDIO 1.024e-07U 1.28U $name=/I2449/D11
M0 WEI WEN VSSE VSSE NCH W=1.68U L=0.06U M=1 $name=/I2449/tnorwece/N00
M1 VDDPE WEN WEI VDDCE PCH W=2.3U L=0.06U M=1 $name=/I2449/tnorwece/P00
M12 AI7N AI7 VSSE VSSE NCH W=1.12U L=0.06U M=1 $name=/I2450/I9/N00
M13 VDDPE AI7 AI7N VDDCE PCH W=2.24U L=0.06U M=1 $name=/I2450/I9/P00
M14 AI6N AI6 VSSE VSSE NCH W=1.12U L=0.06U M=1 $name=/I2450/I8/N00
M15 VDDPE AI6 AI6N VDDCE PCH W=2.24U L=0.06U M=1 $name=/I2450/I8/P00
M16 AI5N AI5 VSSE VSSE NCH W=1.12U L=0.06U M=1 $name=/I2450/I7/N00
M17 VDDPE AI5 AI5N VDDCE PCH W=2.24U L=0.06U M=1 $name=/I2450/I7/P00
M18 AI0N AI0 VSSE VSSE NCH W=1.12U L=0.06U M=1 $name=/I2450/I60/N00
M19 VDDPE AI0 AI0N VDDCE PCH W=2.24U L=0.06U M=1 $name=/I2450/I60/P00
M2 CEI CEN VSSE VSSE NCH W=0.15U L=0.06U M=1 $name=/I2449/tceninv/N00
M20 AI2N AI2 VSSE VSSE NCH W=1.12U L=0.06U M=1 $name=/I2450/I4/N00
M21 VDDPE AI2 AI2N VDDCE PCH W=2.24U L=0.06U M=1 $name=/I2450/I4/P00
M22 AI1N AI1 VSSE VSSE NCH W=1.12U L=0.06U M=1 $name=/I2450/I3/N00
M23 VDDPE AI1 AI1N VDDCE PCH W=2.24U L=0.06U M=1 $name=/I2450/I3/P00
M24 AI13N AI13 VSSE VSSE NCH W=1.12U L=0.06U M=1 $name=/I2450/I15/N00
M25 VDDPE AI13 AI13N VDDCE PCH W=2.24U L=0.06U M=1 $name=/I2450/I15/P00
M26 AI12N AI12 VSSE VSSE NCH W=1.12U L=0.06U M=1 $name=/I2450/I14/N00
M27 VDDPE AI12 AI12N VDDCE PCH W=2.24U L=0.06U M=1 $name=/I2450/I14/P00
M28 AI11N AI11 VSSE VSSE NCH W=1.12U L=0.06U M=1 $name=/I2450/I13/N00
M29 VDDPE AI11 AI11N VDDCE PCH W=2.24U L=0.06U M=1 $name=/I2450/I13/P00
M3 VDDPE CEN CEI VDDCE PCH W=0.15U L=0.06U M=1 $name=/I2449/tceninv/P00
M30 AI10N AI10 VSSE VSSE NCH W=1.12U L=0.06U M=1 $name=/I2450/I12/N00
M31 VDDPE AI10 AI10N VDDCE PCH W=2.24U L=0.06U M=1 $name=/I2450/I12/P00
M32 AI9N AI9 VSSE VSSE NCH W=1.12U L=0.06U M=1 $name=/I2450/I11/N00
M33 VDDPE AI9 AI9N VDDCE PCH W=2.24U L=0.06U M=1 $name=/I2450/I11/P00
M34 AI8N AI8 VSSE VSSE NCH W=1.12U L=0.06U M=1 $name=/I2450/I10/N00
M35 VDDPE AI8 AI8N VDDCE PCH W=2.24U L=0.06U M=1 $name=/I2450/I10/P00
M36 AI3N AI3 VSSE VSSE NCH W=1.12U L=0.06U M=1 $name=/I2450/I1/N00
M37 VDDPE AI3 AI3N VDDCE PCH W=2.24U L=0.06U M=1 $name=/I2450/I1/P00
M38 AI4N AI4 VSSE VSSE NCH W=1.12U L=0.06U M=1 $name=/I2450/I0/N00
M39 VDDPE AI4 AI4N VDDCE PCH W=2.24U L=0.06U M=1 $name=/I2450/I0/P00
.ENDS icache_tag_storeFPAL4_CTRL
****
.SUBCKT icache_tag_storeFPBCTRL21M4 AI0 AI0N AI1 AI1N AI2N AI3N AI4N AI5 AI5N
+  AI6 AI6N AI7 AI7N AI8 AI8N AI9 AI9N AI10 AI10N AI11 AI11N AI12N AI13N CEI
+  CEN CLK EMA0 EMA1 EMA2 IRET IRETN RETN TIEHIGH TIELOW WEI WEN VSSE VDDPE
+  VDDCE
** icache_tag_storeFPBCTRL21M4: 54 flat devices **
XINSTCTRL AI0 AI0N AI1 AI1N TIELOW AI2N TIELOW AI3N TIELOW AI4N AI5 AI5N AI6
+  AI6N AI7 AI7N AI8 AI8N AI9 AI9N AI10 AI10N AI11 AI11N TIELOW AI12N TIELOW
+  AI13N TIELOW CEI CEN CLK EMA0 EMA1 EMA2 IRET IRETN TIELOW RETN TIELOW
+  TIEHIGH TIELOW TIELOW WEI WEN VSSE VDDPE VDDCE icache_tag_storeFPAL4_CTRL
.ENDS icache_tag_storeFPBCTRL21M4
****
.SUBCKT icache_tag_storeFPIO8RL10B1 BWEI_0 BWEI_1 BWEI_2 BWEI_3 BWEI_4 BWEI_5
+  BWEI_6 BWEI_7 BWEI_8 BWEI_9 BWEN_0 BWEN_1 BWEN_2 BWEN_3 BWEN_4 BWEN_5
+  BWEN_6 BWEN_7 BWEN_8 BWEN_9 CREN DNI_0 DNI_1 DNI_2 DNI_3 DNI_4 DNI_5 DNI_6
+  DNI_7 DNI_8 DNI_9 D_0 D_1 D_2 D_3 D_4 D_5 D_6 D_7 D_8 D_9 Q_0 Q_1 Q_2 Q_3
+  Q_4 Q_5 Q_6 Q_7 Q_8 Q_9 Q__0 Q__1 Q__2 Q__3 Q__4 Q__5 Q__6 Q__7 Q__8 Q__9
+  RETN_TERM_0 RETN_TERM_1 RETN_TERM_2 RETN_TERM_3 RETN_TERM_4 RETN_TERM_5
+  RETN_TERM_6 RETN_TERM_7 RETN_TERM_8 RETN_TERM_9 RET_0 RET_1 RET_2 RET_3
+  RET_4 RET_5 RET_6 RET_7 RET_8 RET_9 TIELOW VSSE VDDPE VDDCE
** icache_tag_storeFPIO8RL10B1: 110 flat devices **
XLEFTIO0 BWEI_0 BWEN_0 CREN D_0 DNI_0 Q_0 Q__0 RET_0 RETN_TERM_0 CREN TIELOW
+  VSSE VDDPE VDDCE icache_tag_storeFPIO4
XLEFTIO1 BWEI_1 BWEN_1 CREN D_1 DNI_1 Q_1 Q__1 RET_1 RETN_TERM_1 CREN TIELOW
+  VSSE VDDPE VDDCE icache_tag_storeFPIO4
XLEFTIO2 BWEI_2 BWEN_2 CREN D_2 DNI_2 Q_2 Q__2 RET_2 RETN_TERM_2 CREN TIELOW
+  VSSE VDDPE VDDCE icache_tag_storeFPIO4
XLEFTIO3 BWEI_3 BWEN_3 CREN D_3 DNI_3 Q_3 Q__3 RET_3 RETN_TERM_3 CREN TIELOW
+  VSSE VDDPE VDDCE icache_tag_storeFPIO4
XLEFTIO4 BWEI_4 BWEN_4 CREN D_4 DNI_4 Q_4 Q__4 RET_4 RETN_TERM_4 CREN TIELOW
+  VSSE VDDPE VDDCE icache_tag_storeFPIO4
XLEFTIO5 BWEI_5 BWEN_5 CREN D_5 DNI_5 Q_5 Q__5 RET_5 RETN_TERM_5 CREN TIELOW
+  VSSE VDDPE VDDCE icache_tag_storeFPIO4
XLEFTIO6 BWEI_6 BWEN_6 CREN D_6 DNI_6 Q_6 Q__6 RET_6 RETN_TERM_6 CREN TIELOW
+  VSSE VDDPE VDDCE icache_tag_storeFPIO4
XLEFTIO7 BWEI_7 BWEN_7 CREN D_7 DNI_7 Q_7 Q__7 RET_7 RETN_TERM_7 CREN TIELOW
+  VSSE VDDPE VDDCE icache_tag_storeFPIO4
XLEFTIO8 BWEI_8 BWEN_8 CREN D_8 DNI_8 Q_8 Q__8 RET_8 RETN_TERM_8 CREN TIELOW
+  VSSE VDDPE VDDCE icache_tag_storeFPIO4
XLEFTIOEXT9 BWEI_9 BWEN_9 CREN D_9 DNI_9 Q_9 Q__9 RET_9 RETN_TERM_9 CREN
+  TIELOW VSSE VDDPE VDDCE icache_tag_storeFPIO4
.ENDS icache_tag_storeFPIO8RL10B1
****
.SUBCKT icache_tag_storeBR21FPIO8B1 AI0 AI0N AI1 AI1N AI2N AI3N AI4N AI5 AI5N
+  AI6 AI6N AI7 AI7N AI8 AI8N AI9 AI9N AI10 AI10N AI11 AI11N AI12N AI13N
+  BWEI_0 BWEI_1 BWEI_2 BWEI_3 BWEI_4 BWEI_5 BWEI_6 BWEI_7 BWEI_8 BWEI_9
+  BWEI_10 BWEI_11 BWEI_12 BWEI_13 BWEI_14 BWEI_15 BWEI_16 BWEI_17 BWEI_18
+  BWEI_19 BWEI_20 BWEN_0 BWEN_1 BWEN_2 BWEN_3 BWEN_4 BWEN_5 BWEN_6 BWEN_7
+  BWEN_8 BWEN_9 BWEN_10 BWEN_11 BWEN_12 BWEN_13 BWEN_14 BWEN_15 BWEN_16
+  BWEN_17 BWEN_18 BWEN_19 BWEN_20 CEI CEN CLK CREN DNI_0 DNI_1 DNI_2 DNI_3
+  DNI_4 DNI_5 DNI_6 DNI_7 DNI_8 DNI_9 DNI_10 DNI_11 DNI_12 DNI_13 DNI_14
+  DNI_15 DNI_16 DNI_17 DNI_18 DNI_19 DNI_20 D_0 D_1 D_2 D_3 D_4 D_5 D_6 D_7
+  D_8 D_9 D_10 D_11 D_12 D_13 D_14 D_15 D_16 D_17 D_18 D_19 D_20 EMA0 EMA1
+  EMA2 IRET IRETN Q_0 Q_1 Q_2 Q_3 Q_4 Q_5 Q_6 Q_7 Q_8 Q_9 Q_10 Q_11 Q_12 Q_13
+  Q_14 Q_15 Q_16 Q_17 Q_18 Q_19 Q_20 Q__0 Q__1 Q__2 Q__3 Q__4 Q__5 Q__6 Q__7
+  Q__8 Q__9 Q__10 Q__11 Q__12 Q__13 Q__14 Q__15 Q__16 Q__17 Q__18 Q__19 Q__20
+  RETN RETN_TERM_0 RETN_TERM_1 RETN_TERM_2 RETN_TERM_3 RETN_TERM_4
+  RETN_TERM_5 RETN_TERM_6 RETN_TERM_7 RETN_TERM_8 RETN_TERM_9 RETN_TERM_10
+  RETN_TERM_11 RETN_TERM_12 RETN_TERM_13 RETN_TERM_14 RETN_TERM_15
+  RETN_TERM_16 RETN_TERM_17 RETN_TERM_18 RETN_TERM_19 RETN_TERM_20 RET_0
+  RET_1 RET_2 RET_3 RET_4 RET_5 RET_6 RET_7 RET_8 RET_9 RET_10 RET_11 RET_12
+  RET_13 RET_14 RET_15 RET_16 RET_17 RET_18 RET_19 RET_20 TIELOW WEI WEN VSSE
+  VDDPE VDDCE
** icache_tag_storeBR21FPIO8B1: 285 flat devices **
XBOTCTRL AI0 AI0N AI1 AI1N AI2N AI3N AI4N AI5 AI5N AI6 AI6N AI7 AI7N AI8 AI8N
+  AI9 AI9N AI10 AI10N AI11 AI11N AI12N AI13N CEI CEN CLK EMA0 EMA1 EMA2 IRET
+  IRETN RETN CREN TIELOW WEI WEN VSSE VDDPE VDDCE icache_tag_storeFPBCTRL21M4
XLEFTIOROW BWEI_9 BWEI_8 BWEI_7 BWEI_6 BWEI_5 BWEI_4 BWEI_3 BWEI_2 BWEI_1
+  BWEI_0 BWEN_9 BWEN_8 BWEN_7 BWEN_6 BWEN_5 BWEN_4 BWEN_3 BWEN_2 BWEN_1
+  BWEN_0 CREN DNI_9 DNI_8 DNI_7 DNI_6 DNI_5 DNI_4 DNI_3 DNI_2 DNI_1 DNI_0 D_9
+  D_8 D_7 D_6 D_5 D_4 D_3 D_2 D_1 D_0 Q_9 Q_8 Q_7 Q_6 Q_5 Q_4 Q_3 Q_2 Q_1 Q_0
+  Q__9 Q__8 Q__7 Q__6 Q__5 Q__4 Q__3 Q__2 Q__1 Q__0 RETN_TERM_9 RETN_TERM_8
+  RETN_TERM_7 RETN_TERM_6 RETN_TERM_5 RETN_TERM_4 RETN_TERM_3 RETN_TERM_2
+  RETN_TERM_1 RETN_TERM_0 RET_9 RET_8 RET_7 RET_6 RET_5 RET_4 RET_3 RET_2
+  RET_1 RET_0 TIELOW VSSE VDDPE VDDCE icache_tag_storeFPIO8RL10B1
XRIGHTIOROW BWEI_10 BWEI_11 BWEI_12 BWEI_13 BWEI_14 BWEI_15 BWEI_16 BWEI_17
+  BWEI_18 BWEI_19 BWEI_20 BWEN_10 BWEN_11 BWEN_12 BWEN_13 BWEN_14 BWEN_15
+  BWEN_16 BWEN_17 BWEN_18 BWEN_19 BWEN_20 CREN DNI_10 DNI_11 DNI_12 DNI_13
+  DNI_14 DNI_15 DNI_16 DNI_17 DNI_18 DNI_19 DNI_20 D_10 D_11 D_12 D_13 D_14
+  D_15 D_16 D_17 D_18 D_19 D_20 Q_10 Q_11 Q_12 Q_13 Q_14 Q_15 Q_16 Q_17 Q_18
+  Q_19 Q_20 Q__10 Q__11 Q__12 Q__13 Q__14 Q__15 Q__16 Q__17 Q__18 Q__19 Q__20
+  RETN_TERM_10 RETN_TERM_11 RETN_TERM_12 RETN_TERM_13 RETN_TERM_14
+  RETN_TERM_15 RETN_TERM_16 RETN_TERM_17 RETN_TERM_18 RETN_TERM_19
+  RETN_TERM_20 RET_10 RET_11 RET_12 RET_13 RET_14 RET_15 RET_16 RET_17 RET_18
+  RET_19 RET_20 TIELOW VSSE VDDPE VDDCE icache_tag_storeFPIO8RR11B1
.ENDS icache_tag_storeBR21FPIO8B1
****
.SUBCKT icache_tag_storeIO4 BLTERM0 BLTERM0_ BLTERM1 BLTERM1_ BLTERM2 BLTERM2_
+  BLTERM3 BLTERM3_ BWEI CE_WE CREN CRENA CRENB CRENI DNI FIOGTP GDL GDLA
+  GDLA_ GDLB GDLB_ GDLI GDLI_ GDL_ IODL IODL_ IOGTP IRET IRETN Q_ RDEN
+  TIEHIGH TIELOW WE WEA WEB WEI YI YP1_0 YP1_1 YP1_2 YP1_3 YSN YSNA YSNB YSNI
+  VSSE VDDPE VDDCE
** icache_tag_storeIO4: 178 flat devices **
M0 HNET125 NET362 VSSE VSSE NCH W=0.5U L=0.06U M=1 $name=/gpreg/N11
M1 NET345 YSEL HNET125 VSSE NCH W=0.5U L=0.06U M=1 $name=/gpreg/N10
M10 VDDPE NET364 NET348 VDDCE PCH W=1U L=0.06U M=1 $name=/gpnand/P10
M100 NET518 NET408 VSSE VSSE NCH W=0.4U L=0.06U M=1 $name=/tgdlpdkp/N00
M101 IODW_ WE NET518 VSSE NCH W=1.5U L=0.06U M=1 $name=/tgdlnpgn/N00
M102 VSSE NET518 IODL VSSE NCH W=3U L=0.06U M=1 $name=/tgdldrvn/N00
M103 NET384 NET364 WEI VSSE NCH W=1U L=0.06U M=1 $name=/N9/N00
M104 NET550 NET408 VSSE VSSE NCH W=0.4U L=0.06U M=1 $name=/N43/N00
M105 NET384 NET362 WE VSSE NCH W=1U L=0.06U M=1 $name=/N4/N00
M106 VSSE NET550 IODL_ VSSE NCH W=3U L=0.06U M=1 $name=/N38/N00
M107 GDL NET537 IODL VSSE NCH W=3U L=0.06U M=1 $name=/N3/N00
M108 IODL NET540 GDLI VSSE NCH W=3U L=0.06U M=1 $name=/N2/N00
M109 NET545 QIE_N VSSE VSSE NCH W=1.08U L=0.06U M=1 $name=/N17/N00
M11 VDDPE YSEL NET348 VDDCE PCH W=1U L=0.06U M=1 $name=/gpnand/P00
M110 IODW WE NET547 VSSE NCH W=1.5U L=0.06U M=1 $name=/N12/N00
M111 IODW WE NET550 VSSE NCH W=1.5U L=0.06U M=1 $name=/N11/N00
M112 IODL_ NET537 GDL_ VSSE NCH W=3U L=0.06U M=1 $name=/N10/N00
M113 IODL_ NET540 GDLI_ VSSE NCH W=3U L=0.06U M=1 $name=/N0/N00
M114 HNET371 CREN VSSE VSSE NCH_HVT W=0.15U L=0.06U M=1 $name=/I244/N01
M115 NET559 CRENI HNET371 VSSE NCH_HVT W=0.15U L=0.06U M=1 $name=/I244/N00
M116 VDDPE CREN NET559 VDDCE PCH_HVT W=0.15U L=0.06U M=1 $name=/I244/P10
M117 VDDPE CRENI NET559 VDDCE PCH_HVT W=0.15U L=0.06U M=1 $name=/I244/P00
M118 YILOUT NET351 VSSE VSSE NCH W=0.15U L=0.06U M=1 $name=/I3/N00
M119 VDDPE NET351 YILOUT VDDCE PCH W=0.3U L=0.06U M=1 $name=/I3/P00
M12 NET575 NET339 VSSE VSSE NCH W=0.2U L=0.06U M=1 $name=/tiginvpredrv/N10
M120 NET563 YI VSSE VSSE NCH W=0.15U L=0.06U M=1 $name=/I1/N00
M121 VDDPE YI NET563 VDDCE PCH W=0.15U L=0.06U M=1 $name=/I1/P00
M122 WE WELOUTN VSSE VSSE NCH W=2U L=0.06U M=1 $name=/weidrv/N00
M123 VDDPE WELOUTN WE VDDCE PCH W=4U L=0.06U M=1 $name=/weidrv/P00
M124 NET567 BWEI VSSE VSSE NCH W=0.18U L=0.06U M=1 $name=/tweinv/N00
M125 VDDPE BWEI NET567 VDDCE PCH W=0.33U L=0.06U M=1 $name=/tweinv/P00
M126 NET569 IODL_ VSSE VSSE NCH W=0.36U L=0.06U M=1 $name=/tqbpu2drv/N00
M127 VDDPE IODL_ NET569 VDDCE PCH W=0.7U L=0.06U M=1 $name=/tqbpu2drv/P00
M128 QILAT Q_ VSSE VSSE NCH W=0.24U L=0.06U M=1 $name=/tqbfbinv/N00
M129 VDDPE Q_ QILAT VDDCE PCH W=0.47U L=0.06U M=1 $name=/tqbfbinv/P00
M13 NET575 RDEN VSSE VSSE NCH W=0.2U L=0.06U M=1 $name=/tiginvpredrv/N00
M130 QIE_N QIE_P VSSE VSSE NCH W=0.36U L=0.06U M=1 $name=/tlinv/N00
M131 VDDPE QIE_P QIE_N VDDCE PCH W=0.49U L=0.06U M=1 $name=/tlinv/P00
M132 QIE_P NET575 VSSE VSSE NCH W=0.62U L=0.06U M=1 $name=/tiginv/N00
M133 VDDPE NET575 QIE_P VDDCE PCH W=1.2U L=0.06U M=1 $name=/tiginv/P00
M134 NET579 IOGTPD VSSE VSSE NCH W=0.25U L=0.06U M=1 $name=/tgtpn/N00
M135 VDDPE IOGTPD NET579 VDDCE PCH W=0.56U L=0.06U M=1 $name=/tgtpn/P00
M136 NET581 NET619 VSSE VSSE NCH W=0.18U L=0.06U M=1 $name=/tdinv/N00
M137 VDDPE NET619 NET581 VDDCE PCH W=0.33U L=0.06U M=1 $name=/tdinv/P00
M138 NET583 DNI VSSE VSSE NCH W=0.18U L=0.06U M=1 $name=/tdininv/N00
M139 VDDPE DNI NET583 VDDCE PCH W=0.33U L=0.06U M=1 $name=/tdininv/P00
M14 VDDPE NET339 HNET133 VDDCE PCH W=0.4U L=0.06U M=1 $name=/tiginvpredrv/P01
M140 YSEL YSN VSSE VSSE NCH W=0.6U L=0.06U M=1 $name=/gyselinv/N00
M141 VDDPE YSN YSEL VDDCE PCH W=0.6U L=0.06U M=1 $name=/gyselinv/P00
M142 WELOUTN WELOUT VSSE VSSE NCH W=1U L=0.06U M=1 $name=/gwelat/N00
M143 VDDPE WELOUT WELOUTN VDDCE PCH W=1.4U L=0.06U M=1 $name=/gwelat/P00
M144 WEIN NET330 VSSE VSSE NCH W=0.5U L=0.06U M=1 $name=/gwdly/N00
M145 VDDPE NET330 WEIN VDDCE PCH W=0.82U L=0.06U M=1 $name=/gwdly/P00
M146 NET591 IOGTP VSSE VSSE NCH W=0.15U L=0.06U M=1 $name=/gtp/N00
M147 VDDPE IOGTP NET591 VDDCE PCH W=0.15U L=0.06U M=1 $name=/gtp/P00
M148 NET540 NET348 VSSE VSSE NCH W=0.5U L=0.06U M=1 $name=/gpginv/N00
M149 VDDPE NET348 NET540 VDDCE PCH W=1U L=0.06U M=1 $name=/gpginv/P00
M15 HNET133 RDEN NET575 VDDCE PCH W=0.4U L=0.06U M=1 $name=/tiginvpredrv/P00
M150 YSN YILOUT VSSE VSSE NCH W=0.5U L=0.06U M=1 $name=/gpgdrv2/N00
M151 VDDPE YILOUT YSN VDDCE PCH W=1U L=0.06U M=1 $name=/gpgdrv2/P00
M152 NET597 NET509 VSSE VSSE NCH W=0.15U L=0.06U M=1 $name=/gpgdrv1/N00
M153 VDDPE NET509 NET597 VDDCE PCH W=0.3U L=0.06U M=1 $name=/gpgdrv1/P00
M154 NET537 NET345 VSSE VSSE NCH W=0.5U L=0.06U M=1 $name=/gnreg/N00
M155 VDDPE NET345 NET537 VDDCE PCH W=1U L=0.06U M=1 $name=/gnreg/P00
M156 NET408 WE VSSE VSSE NCH W=1.1U L=0.06U M=1 $name=/geninv/N00
M157 VDDPE WE NET408 VDDCE PCH W=2.7U L=0.06U M=1 $name=/geninv/P00
M158 IODW DLOUTN VSSE VSSE NCH W=1U L=0.06U M=1 $name=/gdndrv/N00
M159 VDDPE DLOUTN IODW VDDCE PCH W=2U L=0.06U M=1 $name=/gdndrv/P00
M16 HNET139 NET617 VSSE VSSE NCH W=0.25U L=0.06U M=1 $name=/wnand/N01
M160 DLOUTN DLOUT VSSE VSSE NCH W=0.8U L=0.06U M=1 $name=/gdlat/N00
M161 VDDPE DLOUT DLOUTN VDDCE PCH W=1.98U L=0.06U M=1 $name=/gdlat/P00
M162 NET607 DLOUTN VSSE VSSE NCH W=0.58U L=0.06U M=1 $name=/gddrvb/N00
M163 VDDPE DLOUTN NET607 VDDCE PCH W=1.14U L=0.06U M=1 $name=/gddrvb/P00
M164 IODW_ NET607 VSSE VSSE NCH W=1U L=0.06U M=1 $name=/gddrv/N00
M165 VDDPE NET607 IODW_ VDDCE PCH W=2U L=0.06U M=1 $name=/gddrv/P00
M166 DIN NET613 VSSE VSSE NCH W=0.5U L=0.06U M=1 $name=/gddly2/N00
M167 VDDPE NET613 DIN VDDCE PCH W=1U L=0.06U M=1 $name=/gddly2/P00
M168 NET613 NET581 VSSE VSSE NCH W=0.18U L=0.06U M=1 $name=/gddly/N00
M169 VDDPE NET581 NET613 VDDCE PCH W=0.33U L=0.06U M=1 $name=/gddly/P00
M17 NET330 CE_WE HNET139 VSSE NCH W=0.25U L=0.06U M=1 $name=/wnand/N00
M170 NET364 NET362 VSSE VSSE NCH W=0.15U L=0.06U M=1 $name=/gcrendd/N00
M171 VDDPE NET362 NET364 VDDCE PCH W=0.3U L=0.06U M=1 $name=/gcrendd/P00
M172 NET615 FIOGTP VSSE VSSE NCH W=0.15U L=0.06U M=1 $name=/I34/N00
M173 VDDPE FIOGTP NET615 VDDCE PCH W=0.15U L=0.06U M=1 $name=/I34/P00
M174 NET617 NET567 VSSE VSSE NCH W=0.18U L=0.06U M=1 $name=/I12/N00
M175 VDDPE NET567 NET617 VDDCE PCH W=0.33U L=0.06U M=1 $name=/I12/P00
M176 NET619 NET583 VSSE VSSE NCH W=0.18U L=0.06U M=1 $name=/I10/N00
M177 VDDPE NET583 NET619 VDDCE PCH W=0.33U L=0.06U M=1 $name=/I10/P00
M18 VDDPE NET617 NET330 VDDCE PCH W=0.25U L=0.06U M=1 $name=/wnand/P10
M19 VDDPE CE_WE NET330 VDDCE PCH W=0.25U L=0.06U M=1 $name=/wnand/P00
M2 HNET122 NET362 VSSE VSSE NCH W=0.5U L=0.06U M=1 $name=/gpreg/N01
M20 HNET143 NET615 VSSE VSSE NCH W=0.84U L=0.06U M=1 $name=/tiogdlprech/N01
M21 NET477 IOGTPD HNET143 VSSE NCH W=0.84U L=0.06U M=1 $name=/tiogdlprech/N00
M22 VDDPE NET615 NET477 VDDCE PCH W=0.83U L=0.06U M=1 $name=/tiogdlprech/P10
M23 VDDPE IOGTPD NET477 VDDCE PCH W=0.83U L=0.06U M=1 $name=/tiogdlprech/P00
M24 HNET147 NET591 VSSE VSSE NCH W=0.75U L=0.06U M=1 $name=/tgtpnd2/N01
M25 IOGTPD QIE_P HNET147 VSSE NCH W=0.75U L=0.06U M=1 $name=/tgtpnd2/N00
M26 VDDPE NET591 IOGTPD VDDCE PCH W=0.74U L=0.06U M=1 $name=/tgtpnd2/P10
M27 VDDPE QIE_P IOGTPD VDDCE PCH W=0.74U L=0.06U M=1 $name=/tgtpnd2/P00
M28 HNET151 IOGTP VSSE VSSE NCH W=0.15U L=0.06U M=1 $name=/tfiogtpnd2/N01
M29 NET339 NET615 HNET151 VSSE NCH W=0.15U L=0.06U M=1 $name=/tfiogtpnd2/N00
M3 NET345 YSEL HNET122 VSSE NCH W=0.5U L=0.06U M=1 $name=/gpreg/N00
M30 VDDPE IOGTP NET339 VDDCE PCH W=0.2U L=0.06U M=1 $name=/tfiogtpnd2/P10
M31 VDDPE NET615 NET339 VDDCE PCH W=0.2U L=0.06U M=1 $name=/tfiogtpnd2/P00
M32 HNET155 NET384 VSSE VSSE NCH W=1U L=0.06U M=1 $name=/gweio/N01
M33 NET342 NET597 HNET155 VSSE NCH W=1U L=0.06U M=1 $name=/gweio/N00
M34 VDDPE NET384 NET342 VDDCE PCH W=0.8U L=0.06U M=1 $name=/gweio/P10
M35 VDDPE NET597 NET342 VDDCE PCH W=0.8U L=0.06U M=1 $name=/gweio/P00
M36 HNET162 YILOUT VSSE VSSE NCH W=0.15U L=0.06U M=1 $name=/I2/NI00
M37 NET351 IOGTPD HNET162 VSSE NCH W=0.15U L=0.06U M=1 $name=/I2/NE00
M38 HNET157 NET579 NET351 VDDCE PCH W=0.15U L=0.06U M=1 $name=/I2/PE00
M39 VDDPE YILOUT HNET157 VDDCE PCH W=0.15U L=0.06U M=1 $name=/I2/PI00
M4 VDDPE NET362 NET345 VDDCE PCH W=1U L=0.06U M=1 $name=/gpreg/P10
M40 HNET168 WELOUTN VSSE VSSE NCH W=0.15U L=0.06U M=1 $name=/gwelatfb/NI00
M41 WELOUT IOGTPD HNET168 VSSE NCH W=0.15U L=0.06U M=1 $name=/gwelatfb/NE00
M42 HNET163 NET579 WELOUT VDDCE PCH W=0.15U L=0.06U M=1 $name=/gwelatfb/PE00
M43 VDDPE WELOUTN HNET163 VDDCE PCH W=0.15U L=0.06U M=1 $name=/gwelatfb/PI00
M44 HNET174 DLOUTN VSSE VSSE NCH W=0.15U L=0.06U M=1 $name=/gdlatfb/NI00
M45 DLOUT IOGTPD HNET174 VSSE NCH W=0.15U L=0.06U M=1 $name=/gdlatfb/NE00
M46 HNET169 NET579 DLOUT VDDCE PCH W=0.15U L=0.06U M=1 $name=/gdlatfb/PE00
M47 VDDPE DLOUTN HNET169 VDDCE PCH W=0.15U L=0.06U M=1 $name=/gdlatfb/PI00
M48 NET362 NET559 VSSE VSSE NCH_HVT W=0.15U L=0.06U M=1 $name=/tcrend/N00
M49 VDDPE NET559 NET362 VDDCE PCH_HVT W=0.15U L=0.06U M=1 $name=/tcrend/P00
M5 VDDPE YSEL NET345 VDDCE PCH W=1U L=0.06U M=1 $name=/gpreg/P00
M50 Q_ IRETN VDDPE VDDCE PCH_HVT W=1.06U L=0.06U M=1 $name=/tqbpuretn/P00
M51 NET373 QILAT Q_ VDDCE PCH_HVT W=1.06U L=0.06U M=1 $name=/tqbpu2/P00
M52 VDDPE QIE_N NET373 VDDCE PCH_HVT W=1.06U L=0.06U M=1 $name=/P35/P00
M53 VDDPE NET569 NET373 VDDCE PCH_HVT W=1.06U L=0.06U M=1 $name=/P33/P00
M54 WELOUT IOGTPD WEIN VDDCE PCH W=0.49U L=0.06U M=1 $name=/wpgp/P00
M55 NET383 IODL Q_ VDDCE PCH W=2.13U L=0.06U M=1 $name=/tqbpu/P00
M56 VDDPE NET384 NET419 VDDCE PCH W=1U L=0.06U M=1 $name=/tpswitch/P00
M57 VDDPE NET477 GDLPRE VDDCE PCH W=1.5U L=0.06U M=1 $name=/tppreb/P00
M58 VDDPE NET342 GDLPRE VDDCE PCH W=1.5U L=0.06U M=1 $name=/tpprea/P00
M59 YSN NET364 NET509 VDDCE PCH W=0.2U L=0.06U M=1 $name=/tppg2/P00
M6 HNET131 NET364 VSSE VSSE NCH W=0.5U L=0.06U M=1 $name=/gpnand/N11
M60 YSNI NET362 NET509 VDDCE PCH W=0.2U L=0.06U M=1 $name=/tppg1/P00
M61 NET351 IOGTPD NET563 VDDCE PCH W=0.2U L=0.06U M=1 $name=/tpgp2/P00
M62 DLOUT IOGTPD DIN VDDCE PCH W=0.49U L=0.06U M=1 $name=/tpdpass/P00
M63 VDDPE WE NET406 VDDCE PCH W=1U L=0.06U M=1 $name=/tgdlpukp/P00
M64 NET406 NET408 IODW_ VDDCE PCH W=1.5U L=0.06U M=1 $name=/tgdlppgp/P00
M65 VDDPE GDLPRE GDL VDDCE PCH W=3U L=0.06U M=1 $name=/tgdlpch/P00
M66 NET518 NET408 IODW_ VDDCE PCH W=1.5U L=0.06U M=1 $name=/tgdlnpgp/P00
M67 NET419 GDL_ GDL VDDCE PCH W=1U L=0.06U M=1 $name=/tgdlkeeperio/P00
M68 GDL GDLPRE GDL_ VDDCE PCH W=3U L=0.06U M=1 $name=/tgdleq/P00
M69 IODL NET406 VDDPE VDDCE PCH W=5U L=0.06U M=1 $name=/tgdldrvp/P00
M7 NET348 YSEL HNET131 VSSE NCH W=0.5U L=0.06U M=1 $name=/gpnand/N10
M70 NET419 GDL GDL_ VDDCE PCH W=1U L=0.06U M=1 $name=/tgdlbkeeper/P00
M71 NET550 NET408 IODW VDDCE PCH W=1.5U L=0.06U M=1 $name=/P7/P00
M72 WEI NET362 NET384 VDDCE PCH W=1U L=0.06U M=1 $name=/P6/P00
M73 VDDPE WE NET547 VDDCE PCH W=1U L=0.06U M=1 $name=/P55/P00
M74 WE NET364 NET384 VDDCE PCH W=1U L=0.06U M=1 $name=/P5/P00
M75 IODL_ NET547 VDDPE VDDCE PCH W=5U L=0.06U M=1 $name=/P43/P00
M76 GDL_ NET345 IODL_ VDDCE PCH W=3U L=0.06U M=1 $name=/P4/P00
M77 IODL NET345 GDL VDDCE PCH W=3U L=0.06U M=1 $name=/P3/P00
M78 VDDPE GDLPRE GDL_ VDDCE PCH W=3U L=0.06U M=1 $name=/P2/P00
M79 VDDPE QIE_P NET464 VDDCE PCH W=2.13U L=0.06U M=1 $name=/P18/P00
M8 HNET128 NET364 VSSE VSSE NCH W=0.5U L=0.06U M=1 $name=/gpnand/N01
M80 VDDPE QIE_P NET383 VDDCE PCH W=2.13U L=0.06U M=1 $name=/P13/P00
M81 NET547 NET408 IODW VDDCE PCH W=1.5U L=0.06U M=1 $name=/P12/P00
M82 NET464 IODL Q_ VDDCE PCH W=2.13U L=0.06U M=1 $name=/P11/P00
M83 GDLI NET348 IODL VDDCE PCH W=3U L=0.06U M=1 $name=/P1/P00
M84 GDLI_ NET348 IODL_ VDDCE PCH W=3U L=0.06U M=1 $name=/P0/P00
M85 VSSE IRETN NET490 VSSE NCH_HVT W=1U L=0.06U M=1 $name=/tqbpdretn/N00
M86 Q_ QILAT NET491 VSSE NCH_HVT W=1U L=0.06U M=1 $name=/tqbpd2/N00
M87 NET491 QIE_P NET490 VSSE NCH_HVT W=1U L=0.06U M=1 $name=/N20/N00
M88 NET491 IODL NET490 VSSE NCH_HVT W=1U L=0.06U M=1 $name=/N18/N00
M89 Q_ NET569 NET0483 VSSE NCH W=1.08U L=0.06U M=1 $name=/N1/N00
M9 NET348 YSEL HNET128 VSSE NCH W=0.5U L=0.06U M=1 $name=/gpnand/N00
M90 NET0483 QIE_N VSSE VSSE NCH W=1.08U L=0.06U M=1 $name=/N5/N00
M91 WEIN NET579 WELOUT VSSE NCH W=0.5U L=0.06U M=1 $name=/wpgn/N00
M92 Q_ NET569 NET545 VSSE NCH W=1.08U L=0.06U M=1 $name=/tqbpd/N00
M93 NET563 NET579 NET351 VSSE NCH W=0.2U L=0.06U M=1 $name=/tpgn2/N00
M94 NET481 NET477 VSSE VSSE NCH W=1.5U L=0.06U M=1 $name=/tnpreb/N00
M95 GDLPRE NET342 NET481 VSSE NCH W=1.5U L=0.06U M=1 $name=/tnprea/N00
M96 NET509 NET362 YSN VSSE NCH W=0.2U L=0.06U M=1 $name=/tnpg2/N00
M97 NET509 NET364 YSNI VSSE NCH W=0.2U L=0.06U M=1 $name=/tnpg1/N00
M98 DIN NET579 DLOUT VSSE NCH W=0.5U L=0.06U M=1 $name=/tndpass/N00
M99 IODW_ WE NET406 VSSE NCH W=1.5U L=0.06U M=1 $name=/tgdlppgn/N00
.ENDS icache_tag_storeIO4
****
.SUBCKT icache_tag_storeIO4EDGE CE_WE_TERM CRENA_TERM FIOGTP_TERM GDLA_TERM
+  GDLA__TERM IOGTP_TERM IRETN_TERM IRET_TERM TIEHIGH TIELOW TIELOW_TERM
+  WE_TERM YP0_TERM YP1_TERM YP2_TERM YP3_TERM YSNA_TERM VSSE VDDPE VDDCE
** icache_tag_storeIO4EDGE: 4 flat devices **
M0 VDDPE TIEHIGH TIEHIGH VDDCE PCH W=0.15U L=0.06U M=1 $name=/P1/P00
M1 VDDPE TIELOW TIEHIGH VDDCE PCH W=4.9U L=0.06U M=1 $name=/P0/P00
M2 TIELOW TIEHIGH VSSE VSSE NCH W=3.15U L=0.06U M=1 $name=/tioarefn/N00
M3 TIELOW TIELOW VSSE VSSE NCH W=0.15U L=0.06U M=1 $name=/N3/N00
.ENDS icache_tag_storeIO4EDGE
****
.SUBCKT icache_tag_storeIO8RR11B1 BLTERM0_0 BLTERM0_1 BLTERM0_2 BLTERM0_3
+  BLTERM0_4 BLTERM0_5 BLTERM0_6 BLTERM0_7 BLTERM0_8 BLTERM0_9 BLTERM0_10
+  BLTERM0__0 BLTERM0__1 BLTERM0__2 BLTERM0__3 BLTERM0__4 BLTERM0__5
+  BLTERM0__6 BLTERM0__7 BLTERM0__8 BLTERM0__9 BLTERM0__10 BLTERM1_0 BLTERM1_1
+  BLTERM1_2 BLTERM1_3 BLTERM1_4 BLTERM1_5 BLTERM1_6 BLTERM1_7 BLTERM1_8
+  BLTERM1_9 BLTERM1_10 BLTERM1__0 BLTERM1__1 BLTERM1__2 BLTERM1__3 BLTERM1__4
+  BLTERM1__5 BLTERM1__6 BLTERM1__7 BLTERM1__8 BLTERM1__9 BLTERM1__10
+  BLTERM2_0 BLTERM2_1 BLTERM2_2 BLTERM2_3 BLTERM2_4 BLTERM2_5 BLTERM2_6
+  BLTERM2_7 BLTERM2_8 BLTERM2_9 BLTERM2_10 BLTERM2__0 BLTERM2__1 BLTERM2__2
+  BLTERM2__3 BLTERM2__4 BLTERM2__5 BLTERM2__6 BLTERM2__7 BLTERM2__8
+  BLTERM2__9 BLTERM2__10 BLTERM3_0 BLTERM3_1 BLTERM3_2 BLTERM3_3 BLTERM3_4
+  BLTERM3_5 BLTERM3_6 BLTERM3_7 BLTERM3_8 BLTERM3_9 BLTERM3_10 BLTERM3__0
+  BLTERM3__1 BLTERM3__2 BLTERM3__3 BLTERM3__4 BLTERM3__5 BLTERM3__6
+  BLTERM3__7 BLTERM3__8 BLTERM3__9 BLTERM3__10 BWEI_0 BWEI_1 BWEI_2 BWEI_3
+  BWEI_4 BWEI_5 BWEI_6 BWEI_7 BWEI_8 BWEI_9 BWEI_10 CE_WE CREN_0 CREN_1
+  CREN_2 CREN_3 CREN_4 CREN_5 CREN_6 CREN_7 CREN_8 CREN_9 CREN_10 DNI_0 DNI_1
+  DNI_2 DNI_3 DNI_4 DNI_5 DNI_6 DNI_7 DNI_8 DNI_9 DNI_10 FIOGTP GDLA GDL_0
+  GDL_1 GDL_2 GDL_3 GDL_4 GDL_5 GDL_6 GDL_7 GDL_8 GDL_9 GDL_10 GDL__0 GDL__1
+  GDL__2 GDL__3 GDL__4 GDL__5 GDL__6 GDL__7 GDL__8 GDL__9 GDL__10 IOGTP IRET
+  IRETN Q__0 Q__1 Q__2 Q__3 Q__4 Q__5 Q__6 Q__7 Q__8 Q__9 Q__10 TIEHIGH
+  TIELOW YP1_0 YP1_1 YP1_2 YP1_3 VSSE VDDPE VDDCE
** icache_tag_storeIO8RR11B1: 1962 flat devices **
XRIGHTIO0 BLTERM0_0 BLTERM0__0 BLTERM1_0 BLTERM1__0 BLTERM2_0 BLTERM2__0
+  BLTERM3_0 BLTERM3__0 BWEI_0 CE_WE CREN_0 TIEHIGH TIEHIGH TIEHIGH DNI_0
+  FIOGTP GDL_0 GDLA TIEHIGH GDLA TIEHIGH GDLI_6 GDLI__8 GDL__0 IODL_12
+  IODL__10 IOGTP IRET IRETN Q__0 GDLA TIEHIGH GDLA WE_14 GDLA GDLA GDLA YP1_0
+  YP1_0 YP1_1 YP1_2 YP1_3 YSN_16 TIEHIGH TIEHIGH TIEHIGH VSSE VDDPE VDDCE
+  icache_tag_storeIO4
XRIGHTIO1 BLTERM0_1 BLTERM0__1 BLTERM1_1 BLTERM1__1 BLTERM2_1 BLTERM2__1
+  BLTERM3_1 BLTERM3__1 BWEI_1 CE_WE CREN_1 TIEHIGH TIEHIGH TIEHIGH DNI_1
+  FIOGTP GDL_1 GDLA TIEHIGH GDLA TIEHIGH GDLI_18 GDLI__20 GDL__1 IODL_24
+  IODL__22 IOGTP IRET IRETN Q__1 GDLA TIEHIGH GDLA WE_26 GDLA GDLA GDLA YP1_0
+  YP1_0 YP1_1 YP1_2 YP1_3 YSN_28 TIEHIGH TIEHIGH TIEHIGH VSSE VDDPE VDDCE
+  icache_tag_storeIO4
XRIGHTIO2 BLTERM0_2 BLTERM0__2 BLTERM1_2 BLTERM1__2 BLTERM2_2 BLTERM2__2
+  BLTERM3_2 BLTERM3__2 BWEI_2 CE_WE CREN_2 TIEHIGH TIEHIGH TIEHIGH DNI_2
+  FIOGTP GDL_2 GDLA TIEHIGH GDLA TIEHIGH GDLI_30 GDLI__32 GDL__2 IODL_36
+  IODL__34 IOGTP IRET IRETN Q__2 GDLA TIEHIGH GDLA WE_38 GDLA GDLA GDLA YP1_0
+  YP1_0 YP1_1 YP1_2 YP1_3 YSN_40 TIEHIGH TIEHIGH TIEHIGH VSSE VDDPE VDDCE
+  icache_tag_storeIO4
XRIGHTIO3 BLTERM0_3 BLTERM0__3 BLTERM1_3 BLTERM1__3 BLTERM2_3 BLTERM2__3
+  BLTERM3_3 BLTERM3__3 BWEI_3 CE_WE CREN_3 TIEHIGH TIEHIGH TIEHIGH DNI_3
+  FIOGTP GDL_3 GDLA TIEHIGH GDLA TIEHIGH GDLI_42 GDLI__44 GDL__3 IODL_48