* 
* Copyright 2022 by Artisan Components, Inc.
* This file has been provided pursuant to a License Agreement
* containing restrictions on its use.  This file contains valuable
* trade secrets and proprietary information of Artisan Components,
* Inc. and is protected by law.
* 
* Generated by bif2cdl v3.4.15
* Version: r0p0-00eac0
* Name: sram_sp_hdc_svt_rvt_hvt Compiler|TSMC cln65gplus 65nm Process, 0.525um2 Bitcell
* Comment: 
* Configuration:  -instname "icache_data_store" -words 512 -bits 64\
* Configuration:  -frequency 50 -mux 4 -pipeline off -write_mask on\
* Configuration:  -wp_size 1 -write_thru on -top_layer "m5-m9" -pow\
* Configuration: er_type otc -redundancy off -rcols 2 -rrows 2 -bmu\
* Configuration: x off -ser none -back_biasing off -power_gating of\
* Configuration: f -retention on -ema on -atf off -cust_comment "" \
* Configuration: -bus_notation on -left_bus_delim "[" -right_bus_de\
* Configuration: lim "]" -pwr_gnd_rename "VDDPE:VDDPE,VDDCE:VDDCE,V\
* Configuration: SSE:VSSE" -prefix "" -name_case upper -check_instn\
* Configuration: ame off -diodes on -drive 6 -dnw off -asvm on -cor\
* Configuration: ners ss_0p90v_0p90v_125c,ss_0p90v_0p90v_m40c,ff_1p\
* Configuration: 10v_1p10v_m40c,ff_1p10v_1p10v_125c,ff_1p10v_1p10v_\
* Configuration: 0c,tt_1p00v_1p00v_25c
* Codefile: 
* 
*
** begin lvs.header
** $Revision: 1.1 $
** end lvs.header
*.BIPOLAR
*.DIOAREA
*.DIOPERI
*
****
.SUBCKT icache_data_storeFPIO4 BWEI BWEN CREN D DNI Q Q_ RET RETN_TERM TIEHIGH
+  TIELOW VSSE VDDPE VDDCE
** icache_data_storeFPIO4: 11 flat devices **
D10 VSSE Q NDIO 1.024e-07U 1.28U $name=/D4
D7 VSSE BWEN NDIO 1.024e-07U 1.28U $name=/D7
D8 VSSE D NDIO 1.024e-07U 1.28U $name=/D6
D9 VSSE CREN NDIO 1.024e-07U 1.28U $name=/D5
M0 Q Q_ VSSE VSSE NCH W=2.8U L=0.06U M=1 $name=/qdrv/N00
M1 VDDPE Q_ Q VDDCE PCH W=4.14U L=0.06U M=1 $name=/qdrv/P00
M2 Q RET VSSE VSSE NCH_HVT W=0.15U L=0.06U M=1 $name=/N15/N00
M3 DNI D VSSE VSSE NCH_HVT W=0.15U L=0.06U M=1 $name=/I238/N00
M4 VDDPE D DNI VDDCE PCH_HVT W=0.15U L=0.06U M=1 $name=/I238/P00
M5 BWEI BWEN VSSE VSSE NCH_HVT W=0.25U L=0.06U M=1 $name=/I237/N00
M6 VDDPE BWEN BWEI VDDCE PCH_HVT W=0.5U L=0.06U M=1 $name=/I237/P00
.ENDS icache_data_storeFPIO4
****
.SUBCKT icache_data_storeFPIO8RR32B1 BWEI_0 BWEI_1 BWEI_2 BWEI_3 BWEI_4 BWEI_5
+  BWEI_6 BWEI_7 BWEI_8 BWEI_9 BWEI_10 BWEI_11 BWEI_12 BWEI_13 BWEI_14 BWEI_15
+  BWEI_16 BWEI_17 BWEI_18 BWEI_19 BWEI_20 BWEI_21 BWEI_22 BWEI_23 BWEI_24
+  BWEI_25 BWEI_26 BWEI_27 BWEI_28 BWEI_29 BWEI_30 BWEI_31 BWEN_0 BWEN_1
+  BWEN_2 BWEN_3 BWEN_4 BWEN_5 BWEN_6 BWEN_7 BWEN_8 BWEN_9 BWEN_10 BWEN_11
+  BWEN_12 BWEN_13 BWEN_14 BWEN_15 BWEN_16 BWEN_17 BWEN_18 BWEN_19 BWEN_20
+  BWEN_21 BWEN_22 BWEN_23 BWEN_24 BWEN_25 BWEN_26 BWEN_27 BWEN_28 BWEN_29
+  BWEN_30 BWEN_31 CREN DNI_0 DNI_1 DNI_2 DNI_3 DNI_4 DNI_5 DNI_6 DNI_7 DNI_8
+  DNI_9 DNI_10 DNI_11 DNI_12 DNI_13 DNI_14 DNI_15 DNI_16 DNI_17 DNI_18 DNI_19
+  DNI_20 DNI_21 DNI_22 DNI_23 DNI_24 DNI_25 DNI_26 DNI_27 DNI_28 DNI_29
+  DNI_30 DNI_31 D_0 D_1 D_2 D_3 D_4 D_5 D_6 D_7 D_8 D_9 D_10 D_11 D_12 D_13
+  D_14 D_15 D_16 D_17 D_18 D_19 D_20 D_21 D_22 D_23 D_24 D_25 D_26 D_27 D_28
+  D_29 D_30 D_31 Q_0 Q_1 Q_2 Q_3 Q_4 Q_5 Q_6 Q_7 Q_8 Q_9 Q_10 Q_11 Q_12 Q_13
+  Q_14 Q_15 Q_16 Q_17 Q_18 Q_19 Q_20 Q_21 Q_22 Q_23 Q_24 Q_25 Q_26 Q_27 Q_28
+  Q_29 Q_30 Q_31 Q__0 Q__1 Q__2 Q__3 Q__4 Q__5 Q__6 Q__7 Q__8 Q__9 Q__10
+  Q__11 Q__12 Q__13 Q__14 Q__15 Q__16 Q__17 Q__18 Q__19 Q__20 Q__21 Q__22
+  Q__23 Q__24 Q__25 Q__26 Q__27 Q__28 Q__29 Q__30 Q__31 RETN_TERM_0
+  RETN_TERM_1 RETN_TERM_2 RETN_TERM_3 RETN_TERM_4 RETN_TERM_5 RETN_TERM_6
+  RETN_TERM_7 RETN_TERM_8 RETN_TERM_9 RETN_TERM_10 RETN_TERM_11 RETN_TERM_12
+  RETN_TERM_13 RETN_TERM_14 RETN_TERM_15 RETN_TERM_16 RETN_TERM_17
+  RETN_TERM_18 RETN_TERM_19 RETN_TERM_20 RETN_TERM_21 RETN_TERM_22
+  RETN_TERM_23 RETN_TERM_24 RETN_TERM_25 RETN_TERM_26 RETN_TERM_27
+  RETN_TERM_28 RETN_TERM_29 RETN_TERM_30 RETN_TERM_31 RET_0 RET_1 RET_2 RET_3
+  RET_4 RET_5 RET_6 RET_7 RET_8 RET_9 RET_10 RET_11 RET_12 RET_13 RET_14
+  RET_15 RET_16 RET_17 RET_18 RET_19 RET_20 RET_21 RET_22 RET_23 RET_24
+  RET_25 RET_26 RET_27 RET_28 RET_29 RET_30 RET_31 TIELOW VSSE VDDPE VDDCE
** icache_data_storeFPIO8RR32B1: 352 flat devices **
XRIGHTIO0 BWEI_0 BWEN_0 CREN D_0 DNI_0 Q_0 Q__0 RET_0 RETN_TERM_0 CREN TIELOW
+  VSSE VDDPE VDDCE icache_data_storeFPIO4
XRIGHTIO1 BWEI_1 BWEN_1 CREN D_1 DNI_1 Q_1 Q__1 RET_1 RETN_TERM_1 CREN TIELOW
+  VSSE VDDPE VDDCE icache_data_storeFPIO4
XRIGHTIO10 BWEI_10 BWEN_10 CREN D_10 DNI_10 Q_10 Q__10 RET_10 RETN_TERM_10
+  CREN TIELOW VSSE VDDPE VDDCE icache_data_storeFPIO4
XRIGHTIO11 BWEI_11 BWEN_11 CREN D_11 DNI_11 Q_11 Q__11 RET_11 RETN_TERM_11
+  CREN TIELOW VSSE VDDPE VDDCE icache_data_storeFPIO4
XRIGHTIO12 BWEI_12 BWEN_12 CREN D_12 DNI_12 Q_12 Q__12 RET_12 RETN_TERM_12
+  CREN TIELOW VSSE VDDPE VDDCE icache_data_storeFPIO4
XRIGHTIO13 BWEI_13 BWEN_13 CREN D_13 DNI_13 Q_13 Q__13 RET_13 RETN_TERM_13
+  CREN TIELOW VSSE VDDPE VDDCE icache_data_storeFPIO4
XRIGHTIO14 BWEI_14 BWEN_14 CREN D_14 DNI_14 Q_14 Q__14 RET_14 RETN_TERM_14
+  CREN TIELOW VSSE VDDPE VDDCE icache_data_storeFPIO4
XRIGHTIO15 BWEI_15 BWEN_15 CREN D_15 DNI_15 Q_15 Q__15 RET_15 RETN_TERM_15
+  CREN TIELOW VSSE VDDPE VDDCE icache_data_storeFPIO4
XRIGHTIO16 BWEI_16 BWEN_16 CREN D_16 DNI_16 Q_16 Q__16 RET_16 RETN_TERM_16
+  CREN TIELOW VSSE VDDPE VDDCE icache_data_storeFPIO4
XRIGHTIO17 BWEI_17 BWEN_17 CREN D_17 DNI_17 Q_17 Q__17 RET_17 RETN_TERM_17
+  CREN TIELOW VSSE VDDPE VDDCE icache_data_storeFPIO4
XRIGHTIO18 BWEI_18 BWEN_18 CREN D_18 DNI_18 Q_18 Q__18 RET_18 RETN_TERM_18
+  CREN TIELOW VSSE VDDPE VDDCE icache_data_storeFPIO4
XRIGHTIO19 BWEI_19 BWEN_19 CREN D_19 DNI_19 Q_19 Q__19 RET_19 RETN_TERM_19
+  CREN TIELOW VSSE VDDPE VDDCE icache_data_storeFPIO4
XRIGHTIO2 BWEI_2 BWEN_2 CREN D_2 DNI_2 Q_2 Q__2 RET_2 RETN_TERM_2 CREN TIELOW
+  VSSE VDDPE VDDCE icache_data_storeFPIO4
XRIGHTIO20 BWEI_20 BWEN_20 CREN D_20 DNI_20 Q_20 Q__20 RET_20 RETN_TERM_20
+  CREN TIELOW VSSE VDDPE VDDCE icache_data_storeFPIO4
XRIGHTIO21 BWEI_21 BWEN_21 CREN D_21 DNI_21 Q_21 Q__21 RET_21 RETN_TERM_21
+  CREN TIELOW VSSE VDDPE VDDCE icache_data_storeFPIO4
XRIGHTIO22 BWEI_22 BWEN_22 CREN D_22 DNI_22 Q_22 Q__22 RET_22 RETN_TERM_22
+  CREN TIELOW VSSE VDDPE VDDCE icache_data_storeFPIO4
XRIGHTIO23 BWEI_23 BWEN_23 CREN D_23 DNI_23 Q_23 Q__23 RET_23 RETN_TERM_23
+  CREN TIELOW VSSE VDDPE VDDCE icache_data_storeFPIO4
XRIGHTIO24 BWEI_24 BWEN_24 CREN D_24 DNI_24 Q_24 Q__24 RET_24 RETN_TERM_24
+  CREN TIELOW VSSE VDDPE VDDCE icache_data_storeFPIO4
XRIGHTIO25 BWEI_25 BWEN_25 CREN D_25 DNI_25 Q_25 Q__25 RET_25 RETN_TERM_25
+  CREN TIELOW VSSE VDDPE VDDCE icache_data_storeFPIO4
XRIGHTIO26 BWEI_26 BWEN_26 CREN D_26 DNI_26 Q_26 Q__26 RET_26 RETN_TERM_26
+  CREN TIELOW VSSE VDDPE VDDCE icache_data_storeFPIO4
XRIGHTIO27 BWEI_27 BWEN_27 CREN D_27 DNI_27 Q_27 Q__27 RET_27 RETN_TERM_27
+  CREN TIELOW VSSE VDDPE VDDCE icache_data_storeFPIO4
XRIGHTIO28 BWEI_28 BWEN_28 CREN D_28 DNI_28 Q_28 Q__28 RET_28 RETN_TERM_28
+  CREN TIELOW VSSE VDDPE VDDCE icache_data_storeFPIO4
XRIGHTIO29 BWEI_29 BWEN_29 CREN D_29 DNI_29 Q_29 Q__29 RET_29 RETN_TERM_29
+  CREN TIELOW VSSE VDDPE VDDCE icache_data_storeFPIO4
XRIGHTIO3 BWEI_3 BWEN_3 CREN D_3 DNI_3 Q_3 Q__3 RET_3 RETN_TERM_3 CREN TIELOW
+  VSSE VDDPE VDDCE icache_data_storeFPIO4
XRIGHTIO30 BWEI_30 BWEN_30 CREN D_30 DNI_30 Q_30 Q__30 RET_30 RETN_TERM_30
+  CREN TIELOW VSSE VDDPE VDDCE icache_data_storeFPIO4
XRIGHTIO4 BWEI_4 BWEN_4 CREN D_4 DNI_4 Q_4 Q__4 RET_4 RETN_TERM_4 CREN TIELOW
+  VSSE VDDPE VDDCE icache_data_storeFPIO4
XRIGHTIO5 BWEI_5 BWEN_5 CREN D_5 DNI_5 Q_5 Q__5 RET_5 RETN_TERM_5 CREN TIELOW
+  VSSE VDDPE VDDCE icache_data_storeFPIO4
XRIGHTIO6 BWEI_6 BWEN_6 CREN D_6 DNI_6 Q_6 Q__6 RET_6 RETN_TERM_6 CREN TIELOW
+  VSSE VDDPE VDDCE icache_data_storeFPIO4
XRIGHTIO7 BWEI_7 BWEN_7 CREN D_7 DNI_7 Q_7 Q__7 RET_7 RETN_TERM_7 CREN TIELOW
+  VSSE VDDPE VDDCE icache_data_storeFPIO4
XRIGHTIO8 BWEI_8 BWEN_8 CREN D_8 DNI_8 Q_8 Q__8 RET_8 RETN_TERM_8 CREN TIELOW
+  VSSE VDDPE VDDCE icache_data_storeFPIO4
XRIGHTIO9 BWEI_9 BWEN_9 CREN D_9 DNI_9 Q_9 Q__9 RET_9 RETN_TERM_9 CREN TIELOW
+  VSSE VDDPE VDDCE icache_data_storeFPIO4
XRIGHTIOEXT31 BWEI_31 BWEN_31 CREN D_31 DNI_31 Q_31 Q__31 RET_31 RETN_TERM_31
+  CREN TIELOW VSSE VDDPE VDDCE icache_data_storeFPIO4
.ENDS icache_data_storeFPIO8RR32B1
****
.SUBCKT icache_data_storeFPAL4_CTRL AI0 AI0N AI1 AI1N AI2 AI2N AI3 AI3N AI4
+  AI4N AI5 AI5N AI6 AI6N AI7 AI7N AI8 AI8N AI9 AI9N AI10 AI10N AI11 AI11N
+  AI12 AI12N AI13 AI13N BWEN CEI CEN CLK EMA0 EMA1 EMA2 IRET IRETN RDT RETN
+  STOV TIEHIGH TIELOW WBT WEI WEN VSSE VDDPE VDDCE
** icache_data_storeFPAL4_CTRL: 54 flat devices **
D10 VSSE CLK NDIO 1.024e-07U 1.28U $name=/I2449/D1
D11 VSSE CEN NDIO 1.024e-07U 1.28U $name=/I2449/D0
D4 VSSE STOV NDIO 1.024e-07U 1.28U $name=/I2449/D7
D40 VSSE AI5 NDIO 1.024e-07U 1.28U $name=/I2450/D9
D41 VSSE AI4 NDIO 1.024e-07U 1.28U $name=/I2450/D8
D42 VSSE AI6 NDIO 1.024e-07U 1.28U $name=/I2450/D7
D43 VSSE AI7 NDIO 1.024e-07U 1.28U $name=/I2450/D6
D44 VSSE AI9 NDIO 1.024e-07U 1.28U $name=/I2450/D5
D45 VSSE AI8 NDIO 1.024e-07U 1.28U $name=/I2450/D4
D46 VSSE AI10 NDIO 1.024e-07U 1.28U $name=/I2450/D3
D47 VSSE AI11 NDIO 1.024e-07U 1.28U $name=/I2450/D2
D48 VSSE AI1 NDIO 1.024e-07U 1.28U $name=/I2450/D13
D49 VSSE AI0 NDIO 1.024e-07U 1.28U $name=/I2450/D12
D5 VSSE EMA0 NDIO 1.024e-07U 1.28U $name=/I2449/D6
D50 VSSE AI2 NDIO 1.024e-07U 1.28U $name=/I2450/D11
D51 VSSE AI3 NDIO 1.024e-07U 1.28U $name=/I2450/D10
D52 VSSE AI12 NDIO 1.024e-07U 1.28U $name=/I2450/D1
D53 VSSE AI13 NDIO 1.024e-07U 1.28U $name=/I2450/D0
D6 VSSE RETN NDIO 1.024e-07U 1.28U $name=/I2449/D3
D7 VSSE WEN NDIO 1.024e-07U 1.28U $name=/I2449/D2
D8 VSSE WBT NDIO 1.024e-07U 1.28U $name=/I2449/D12
D9 VSSE RDT NDIO 1.024e-07U 1.28U $name=/I2449/D11
M0 WEI WEN VSSE VSSE NCH W=1.68U L=0.06U M=1 $name=/I2449/tnorwece/N00
M1 VDDPE WEN WEI VDDCE PCH W=2.3U L=0.06U M=1 $name=/I2449/tnorwece/P00
M12 AI7N AI7 VSSE VSSE NCH W=1.12U L=0.06U M=1 $name=/I2450/I9/N00
M13 VDDPE AI7 AI7N VDDCE PCH W=2.24U L=0.06U M=1 $name=/I2450/I9/P00
M14 AI6N AI6 VSSE VSSE NCH W=1.12U L=0.06U M=1 $name=/I2450/I8/N00
M15 VDDPE AI6 AI6N VDDCE PCH W=2.24U L=0.06U M=1 $name=/I2450/I8/P00
M16 AI5N AI5 VSSE VSSE NCH W=1.12U L=0.06U M=1 $name=/I2450/I7/N00
M17 VDDPE AI5 AI5N VDDCE PCH W=2.24U L=0.06U M=1 $name=/I2450/I7/P00
M18 AI0N AI0 VSSE VSSE NCH W=1.12U L=0.06U M=1 $name=/I2450/I60/N00
M19 VDDPE AI0 AI0N VDDCE PCH W=2.24U L=0.06U M=1 $name=/I2450/I60/P00
M2 CEI CEN VSSE VSSE NCH W=0.15U L=0.06U M=1 $name=/I2449/tceninv/N00
M20 AI2N AI2 VSSE VSSE NCH W=1.12U L=0.06U M=1 $name=/I2450/I4/N00
M21 VDDPE AI2 AI2N VDDCE PCH W=2.24U L=0.06U M=1 $name=/I2450/I4/P00
M22 AI1N AI1 VSSE VSSE NCH W=1.12U L=0.06U M=1 $name=/I2450/I3/N00
M23 VDDPE AI1 AI1N VDDCE PCH W=2.24U L=0.06U M=1 $name=/I2450/I3/P00
M24 AI13N AI13 VSSE VSSE NCH W=1.12U L=0.06U M=1 $name=/I2450/I15/N00
M25 VDDPE AI13 AI13N VDDCE PCH W=2.24U L=0.06U M=1 $name=/I2450/I15/P00
M26 AI12N AI12 VSSE VSSE NCH W=1.12U L=0.06U M=1 $name=/I2450/I14/N00
M27 VDDPE AI12 AI12N VDDCE PCH W=2.24U L=0.06U M=1 $name=/I2450/I14/P00
M28 AI11N AI11 VSSE VSSE NCH W=1.12U L=0.06U M=1 $name=/I2450/I13/N00
M29 VDDPE AI11 AI11N VDDCE PCH W=2.24U L=0.06U M=1 $name=/I2450/I13/P00
M3 VDDPE CEN CEI VDDCE PCH W=0.15U L=0.06U M=1 $name=/I2449/tceninv/P00
M30 AI10N AI10 VSSE VSSE NCH W=1.12U L=0.06U M=1 $name=/I2450/I12/N00
M31 VDDPE AI10 AI10N VDDCE PCH W=2.24U L=0.06U M=1 $name=/I2450/I12/P00
M32 AI9N AI9 VSSE VSSE NCH W=1.12U L=0.06U M=1 $name=/I2450/I11/N00
M33 VDDPE AI9 AI9N VDDCE PCH W=2.24U L=0.06U M=1 $name=/I2450/I11/P00
M34 AI8N AI8 VSSE VSSE NCH W=1.12U L=0.06U M=1 $name=/I2450/I10/N00
M35 VDDPE AI8 AI8N VDDCE PCH W=2.24U L=0.06U M=1 $name=/I2450/I10/P00
M36 AI3N AI3 VSSE VSSE NCH W=1.12U L=0.06U M=1 $name=/I2450/I1/N00
M37 VDDPE AI3 AI3N VDDCE PCH W=2.24U L=0.06U M=1 $name=/I2450/I1/P00
M38 AI4N AI4 VSSE VSSE NCH W=1.12U L=0.06U M=1 $name=/I2450/I0/N00
M39 VDDPE AI4 AI4N VDDCE PCH W=2.24U L=0.06U M=1 $name=/I2450/I0/P00
.ENDS icache_data_storeFPAL4_CTRL
****
.SUBCKT icache_data_storeFPBCTRL64M4 AI0 AI0N AI1 AI1N AI2N AI3N AI4N AI5 AI5N
+  AI6 AI6N AI7 AI7N AI8 AI8N AI9 AI9N AI10 AI10N AI11 AI11N AI12N AI13N CEI
+  CEN CLK EMA0 EMA1 EMA2 IRET IRETN RETN TIEHIGH TIELOW WEI WEN VSSE VDDPE
+  VDDCE
** icache_data_storeFPBCTRL64M4: 54 flat devices **
XINSTCTRL AI0 AI0N AI1 AI1N TIELOW AI2N TIELOW AI3N TIELOW AI4N AI5 AI5N AI6
+  AI6N AI7 AI7N AI8 AI8N AI9 AI9N AI10 AI10N AI11 AI11N TIELOW AI12N TIELOW
+  AI13N TIELOW CEI CEN CLK EMA0 EMA1 EMA2 IRET IRETN TIELOW RETN TIELOW
+  TIEHIGH TIELOW TIELOW WEI WEN VSSE VDDPE VDDCE icache_data_storeFPAL4_CTRL
.ENDS icache_data_storeFPBCTRL64M4
****
.SUBCKT icache_data_storeFPIO8RL32B1 BWEI_0 BWEI_1 BWEI_2 BWEI_3 BWEI_4 BWEI_5
+  BWEI_6 BWEI_7 BWEI_8 BWEI_9 BWEI_10 BWEI_11 BWEI_12 BWEI_13 BWEI_14 BWEI_15
+  BWEI_16 BWEI_17 BWEI_18 BWEI_19 BWEI_20 BWEI_21 BWEI_22 BWEI_23 BWEI_24
+  BWEI_25 BWEI_26 BWEI_27 BWEI_28 BWEI_29 BWEI_30 BWEI_31 BWEN_0 BWEN_1
+  BWEN_2 BWEN_3 BWEN_4 BWEN_5 BWEN_6 BWEN_7 BWEN_8 BWEN_9 BWEN_10 BWEN_11
+  BWEN_12 BWEN_13 BWEN_14 BWEN_15 BWEN_16 BWEN_17 BWEN_18 BWEN_19 BWEN_20
+  BWEN_21 BWEN_22 BWEN_23 BWEN_24 BWEN_25 BWEN_26 BWEN_27 BWEN_28 BWEN_29
+  BWEN_30 BWEN_31 CREN DNI_0 DNI_1 DNI_2 DNI_3 DNI_4 DNI_5 DNI_6 DNI_7 DNI_8
+  DNI_9 DNI_10 DNI_11 DNI_12 DNI_13 DNI_14 DNI_15 DNI_16 DNI_17 DNI_18 DNI_19
+  DNI_20 DNI_21 DNI_22 DNI_23 DNI_24 DNI_25 DNI_26 DNI_27 DNI_28 DNI_29
+  DNI_30 DNI_31 D_0 D_1 D_2 D_3 D_4 D_5 D_6 D_7 D_8 D_9 D_10 D_11 D_12 D_13
+  D_14 D_15 D_16 D_17 D_18 D_19 D_20 D_21 D_22 D_23 D_24 D_25 D_26 D_27 D_28
+  D_29 D_30 D_31 Q_0 Q_1 Q_2 Q_3 Q_4 Q_5 Q_6 Q_7 Q_8 Q_9 Q_10 Q_11 Q_12 Q_13
+  Q_14 Q_15 Q_16 Q_17 Q_18 Q_19 Q_20 Q_21 Q_22 Q_23 Q_24 Q_25 Q_26 Q_27 Q_28
+  Q_29 Q_30 Q_31 Q__0 Q__1 Q__2 Q__3 Q__4 Q__5 Q__6 Q__7 Q__8 Q__9 Q__10
+  Q__11 Q__12 Q__13 Q__14 Q__15 Q__16 Q__17 Q__18 Q__19 Q__20 Q__21 Q__22
+  Q__23 Q__24 Q__25 Q__26 Q__27 Q__28 Q__29 Q__30 Q__31 RETN_TERM_0
+  RETN_TERM_1 RETN_TERM_2 RETN_TERM_3 RETN_TERM_4 RETN_TERM_5 RETN_TERM_6
+  RETN_TERM_7 RETN_TERM_8 RETN_TERM_9 RETN_TERM_10 RETN_TERM_11 RETN_TERM_12
+  RETN_TERM_13 RETN_TERM_14 RETN_TERM_15 RETN_TERM_16 RETN_TERM_17
+  RETN_TERM_18 RETN_TERM_19 RETN_TERM_20 RETN_TERM_21 RETN_TERM_22
+  RETN_TERM_23 RETN_TERM_24 RETN_TERM_25 RETN_TERM_26 RETN_TERM_27
+  RETN_TERM_28 RETN_TERM_29 RETN_TERM_30 RETN_TERM_31 RET_0 RET_1 RET_2 RET_3
+  RET_4 RET_5 RET_6 RET_7 RET_8 RET_9 RET_10 RET_11 RET_12 RET_13 RET_14
+  RET_15 RET_16 RET_17 RET_18 RET_19 RET_20 RET_21 RET_22 RET_23 RET_24
+  RET_25 RET_26 RET_27 RET_28 RET_29 RET_30 RET_31 TIELOW VSSE VDDPE VDDCE
** icache_data_storeFPIO8RL32B1: 352 flat devices **
XLEFTIO0 BWEI_0 BWEN_0 CREN D_0 DNI_0 Q_0 Q__0 RET_0 RETN_TERM_0 CREN TIELOW
+  VSSE VDDPE VDDCE icache_data_storeFPIO4
XLEFTIO1 BWEI_1 BWEN_1 CREN D_1 DNI_1 Q_1 Q__1 RET_1 RETN_TERM_1 CREN TIELOW
+  VSSE VDDPE VDDCE icache_data_storeFPIO4
XLEFTIO10 BWEI_10 BWEN_10 CREN D_10 DNI_10 Q_10 Q__10 RET_10 RETN_TERM_10 CREN
+  TIELOW VSSE VDDPE VDDCE icache_data_storeFPIO4
XLEFTIO11 BWEI_11 BWEN_11 CREN D_11 DNI_11 Q_11 Q__11 RET_11 RETN_TERM_11 CREN
+  TIELOW VSSE VDDPE VDDCE icache_data_storeFPIO4
XLEFTIO12 BWEI_12 BWEN_12 CREN D_12 DNI_12 Q_12 Q__12 RET_12 RETN_TERM_12 CREN
+  TIELOW VSSE VDDPE VDDCE icache_data_storeFPIO4
XLEFTIO13 BWEI_13 BWEN_13 CREN D_13 DNI_13 Q_13 Q__13 RET_13 RETN_TERM_13 CREN
+  TIELOW VSSE VDDPE VDDCE icache_data_storeFPIO4
XLEFTIO14 BWEI_14 BWEN_14 CREN D_14 DNI_14 Q_14 Q__14 RET_14 RETN_TERM_14 CREN
+  TIELOW VSSE VDDPE VDDCE icache_data_storeFPIO4
XLEFTIO15 BWEI_15 BWEN_15 CREN D_15 DNI_15 Q_15 Q__15 RET_15 RETN_TERM_15 CREN
+  TIELOW VSSE VDDPE VDDCE icache_data_storeFPIO4
XLEFTIO16 BWEI_16 BWEN_16 CREN D_16 DNI_16 Q_16 Q__16 RET_16 RETN_TERM_16 CREN
+  TIELOW VSSE VDDPE VDDCE icache_data_storeFPIO4
XLEFTIO17 BWEI_17 BWEN_17 CREN D_17 DNI_17 Q_17 Q__17 RET_17 RETN_TERM_17 CREN
+  TIELOW VSSE VDDPE VDDCE icache_data_storeFPIO4
XLEFTIO18 BWEI_18 BWEN_18 CREN D_18 DNI_18 Q_18 Q__18 RET_18 RETN_TERM_18 CREN
+  TIELOW VSSE VDDPE VDDCE icache_data_storeFPIO4
XLEFTIO19 BWEI_19 BWEN_19 CREN D_19 DNI_19 Q_19 Q__19 RET_19 RETN_TERM_19 CREN
+  TIELOW VSSE VDDPE VDDCE icache_data_storeFPIO4
XLEFTIO2 BWEI_2 BWEN_2 CREN D_2 DNI_2 Q_2 Q__2 RET_2 RETN_TERM_2 CREN TIELOW
+  VSSE VDDPE VDDCE icache_data_storeFPIO4
XLEFTIO20 BWEI_20 BWEN_20 CREN D_20 DNI_20 Q_20 Q__20 RET_20 RETN_TERM_20 CREN
+  TIELOW VSSE VDDPE VDDCE icache_data_storeFPIO4
XLEFTIO21 BWEI_21 BWEN_21 CREN D_21 DNI_21 Q_21 Q__21 RET_21 RETN_TERM_21 CREN
+  TIELOW VSSE VDDPE VDDCE icache_data_storeFPIO4
XLEFTIO22 BWEI_22 BWEN_22 CREN D_22 DNI_22 Q_22 Q__22 RET_22 RETN_TERM_22 CREN
+  TIELOW VSSE VDDPE VDDCE icache_data_storeFPIO4
XLEFTIO23 BWEI_23 BWEN_23 CREN D_23 DNI_23 Q_23 Q__23 RET_23 RETN_TERM_23 CREN
+  TIELOW VSSE VDDPE VDDCE icache_data_storeFPIO4
XLEFTIO24 BWEI_24 BWEN_24 CREN D_24 DNI_24 Q_24 Q__24 RET_24 RETN_TERM_24 CREN
+  TIELOW VSSE VDDPE VDDCE icache_data_storeFPIO4
XLEFTIO25 BWEI_25 BWEN_25 CREN D_25 DNI_25 Q_25 Q__25 RET_25 RETN_TERM_25 CREN
+  TIELOW VSSE VDDPE VDDCE icache_data_storeFPIO4
XLEFTIO26 BWEI_26 BWEN_26 CREN D_26 DNI_26 Q_26 Q__26 RET_26 RETN_TERM_26 CREN
+  TIELOW VSSE VDDPE VDDCE icache_data_storeFPIO4
XLEFTIO27 BWEI_27 BWEN_27 CREN D_27 DNI_27 Q_27 Q__27 RET_27 RETN_TERM_27 CREN
+  TIELOW VSSE VDDPE VDDCE icache_data_storeFPIO4
XLEFTIO28 BWEI_28 BWEN_28 CREN D_28 DNI_28 Q_28 Q__28 RET_28 RETN_TERM_28 CREN
+  TIELOW VSSE VDDPE VDDCE icache_data_storeFPIO4
XLEFTIO29 BWEI_29 BWEN_29 CREN D_29 DNI_29 Q_29 Q__29 RET_29 RETN_TERM_29 CREN
+  TIELOW VSSE VDDPE VDDCE icache_data_storeFPIO4
XLEFTIO3 BWEI_3 BWEN_3 CREN D_3 DNI_3 Q_3 Q__3 RET_3 RETN_TERM_3 CREN TIELOW
+  VSSE VDDPE VDDCE icache_data_storeFPIO4
XLEFTIO30 BWEI_30 BWEN_30 CREN D_30 DNI_30 Q_30 Q__30 RET_30 RETN_TERM_30 CREN
+  TIELOW VSSE VDDPE VDDCE icache_data_storeFPIO4
XLEFTIO4 BWEI_4 BWEN_4 CREN D_4 DNI_4 Q_4 Q__4 RET_4 RETN_TERM_4 CREN TIELOW
+  VSSE VDDPE VDDCE icache_data_storeFPIO4
XLEFTIO5 BWEI_5 BWEN_5 CREN D_5 DNI_5 Q_5 Q__5 RET_5 RETN_TERM_5 CREN TIELOW
+  VSSE VDDPE VDDCE icache_data_storeFPIO4
XLEFTIO6 BWEI_6 BWEN_6 CREN D_6 DNI_6 Q_6 Q__6 RET_6 RETN_TERM_6 CREN TIELOW
+  VSSE VDDPE VDDCE icache_data_storeFPIO4
XLEFTIO7 BWEI_7 BWEN_7 CREN D_7 DNI_7 Q_7 Q__7 RET_7 RETN_TERM_7 CREN TIELOW
+  VSSE VDDPE VDDCE icache_data_storeFPIO4
XLEFTIO8 BWEI_8 BWEN_8 CREN D_8 DNI_8 Q_8 Q__8 RET_8 RETN_TERM_8 CREN TIELOW
+  VSSE VDDPE VDDCE icache_data_storeFPIO4
XLEFTIO9 BWEI_9 BWEN_9 CREN D_9 DNI_9 Q_9 Q__9 RET_9 RETN_TERM_9 CREN TIELOW
+  VSSE VDDPE VDDCE icache_data_storeFPIO4
XLEFTIOEXT31 BWEI_31 BWEN_31 CREN D_31 DNI_31 Q_31 Q__31 RET_31 RETN_TERM_31
+  CREN TIELOW VSSE VDDPE VDDCE icache_data_storeFPIO4
.ENDS icache_data_storeFPIO8RL32B1
****
.SUBCKT icache_data_storeBR64FPIO8B1 AI0 AI0N AI1 AI1N AI2N AI3N AI4N AI5 AI5N
+  AI6 AI6N AI7 AI7N AI8 AI8N AI9 AI9N AI10 AI10N AI11 AI11N AI12N AI13N
+  BWEI_0 BWEI_1 BWEI_2 BWEI_3 BWEI_4 BWEI_5 BWEI_6 BWEI_7 BWEI_8 BWEI_9
+  BWEI_10 BWEI_11 BWEI_12 BWEI_13 BWEI_14 BWEI_15 BWEI_16 BWEI_17 BWEI_18
+  BWEI_19 BWEI_20 BWEI_21 BWEI_22 BWEI_23 BWEI_24 BWEI_25 BWEI_26 BWEI_27
+  BWEI_28 BWEI_29 BWEI_30 BWEI_31 BWEI_32 BWEI_33 BWEI_34 BWEI_35 BWEI_36
+  BWEI_37 BWEI_38 BWEI_39 BWEI_40 BWEI_41 BWEI_42 BWEI_43 BWEI_44 BWEI_45
+  BWEI_46 BWEI_47 BWEI_48 BWEI_49 BWEI_50 BWEI_51 BWEI_52 BWEI_53 BWEI_54
+  BWEI_55 BWEI_56 BWEI_57 BWEI_58 BWEI_59 BWEI_60 BWEI_61 BWEI_62 BWEI_63
+  BWEN_0 BWEN_1 BWEN_2 BWEN_3 BWEN_4 BWEN_5 BWEN_6 BWEN_7 BWEN_8 BWEN_9
+  BWEN_10 BWEN_11 BWEN_12 BWEN_13 BWEN_14 BWEN_15 BWEN_16 BWEN_17 BWEN_18
+  BWEN_19 BWEN_20 BWEN_21 BWEN_22 BWEN_23 BWEN_24 BWEN_25 BWEN_26 BWEN_27
+  BWEN_28 BWEN_29 BWEN_30 BWEN_31 BWEN_32 BWEN_33 BWEN_34 BWEN_35 BWEN_36
+  BWEN_37 BWEN_38 BWEN_39 BWEN_40 BWEN_41 BWEN_42 BWEN_43 BWEN_44 BWEN_45
+  BWEN_46 BWEN_47 BWEN_48 BWEN_49 BWEN_50 BWEN_51 BWEN_52 BWEN_53 BWEN_54
+  BWEN_55 BWEN_56 BWEN_57 BWEN_58 BWEN_59 BWEN_60 BWEN_61 BWEN_62 BWEN_63 CEI
+  CEN CLK CREN DNI_0 DNI_1 DNI_2 DNI_3 DNI_4 DNI_5 DNI_6 DNI_7 DNI_8 DNI_9
+  DNI_10 DNI_11 DNI_12 DNI_13 DNI_14 DNI_15 DNI_16 DNI_17 DNI_18 DNI_19
+  DNI_20 DNI_21 DNI_22 DNI_23 DNI_24 DNI_25 DNI_26 DNI_27 DNI_28 DNI_29
+  DNI_30 DNI_31 DNI_32 DNI_33 DNI_34 DNI_35 DNI_36 DNI_37 DNI_38 DNI_39
+  DNI_40 DNI_41 DNI_42 DNI_43 DNI_44 DNI_45 DNI_46 DNI_47 DNI_48 DNI_49
+  DNI_50 DNI_51 DNI_52 DNI_53 DNI_54 DNI_55 DNI_56 DNI_57 DNI_58 DNI_59
+  DNI_60 DNI_61 DNI_62 DNI_63 D_0 D_1 D_2 D_3 D_4 D_5 D_6 D_7 D_8 D_9 D_10
+  D_11 D_12 D_13 D_14 D_15 D_16 D_17 D_18 D_19 D_20 D_21 D_22 D_23 D_24 D_25
+  D_26 D_27 D_28 D_29 D_30 D_31 D_32 D_33 D_34 D_35 D_36 D_37 D_38 D_39 D_40
+  D_41 D_42 D_43 D_44 D_45 D_46 D_47 D_48 D_49 D_50 D_51 D_52 D_53 D_54 D_55
+  D_56 D_57 D_58 D_59 D_60 D_61 D_62 D_63 EMA0 EMA1 EMA2 IRET IRETN Q_0 Q_1
+  Q_2 Q_3 Q_4 Q_5 Q_6 Q_7 Q_8 Q_9 Q_10 Q_11 Q_12 Q_13 Q_14 Q_15 Q_16 Q_17
+  Q_18 Q_19 Q_20 Q_21 Q_22 Q_23 Q_24 Q_25 Q_26 Q_27 Q_28 Q_29 Q_30 Q_31 Q_32
+  Q_33 Q_34 Q_35 Q_36 Q_37 Q_38 Q_39 Q_40 Q_41 Q_42 Q_43 Q_44 Q_45 Q_46 Q_47
+  Q_48 Q_49 Q_50 Q_51 Q_52 Q_53 Q_54 Q_55 Q_56 Q_57 Q_58 Q_59 Q_60 Q_61 Q_62
+  Q_63 Q__0 Q__1 Q__2 Q__3 Q__4 Q__5 Q__6 Q__7 Q__8 Q__9 Q__10 Q__11 Q__12
+  Q__13 Q__14 Q__15 Q__16 Q__17 Q__18 Q__19 Q__20 Q__21 Q__22 Q__23 Q__24
+  Q__25 Q__26 Q__27 Q__28 Q__29 Q__30 Q__31 Q__32 Q__33 Q__34 Q__35 Q__36
+  Q__37 Q__38 Q__39 Q__40 Q__41 Q__42 Q__43 Q__44 Q__45 Q__46 Q__47 Q__48
+  Q__49 Q__50 Q__51 Q__52 Q__53 Q__54 Q__55 Q__56 Q__57 Q__58 Q__59 Q__60
+  Q__61 Q__62 Q__63 RETN RETN_TERM_0 RETN_TERM_1 RETN_TERM_2 RETN_TERM_3
+  RETN_TERM_4 RETN_TERM_5 RETN_TERM_6 RETN_TERM_7 RETN_TERM_8 RETN_TERM_9
+  RETN_TERM_10 RETN_TERM_11 RETN_TERM_12 RETN_TERM_13 RETN_TERM_14
+  RETN_TERM_15 RETN_TERM_16 RETN_TERM_17 RETN_TERM_18 RETN_TERM_19
+  RETN_TERM_20 RETN_TERM_21 RETN_TERM_22 RETN_TERM_23 RETN_TERM_24
+  RETN_TERM_25 RETN_TERM_26 RETN_TERM_27 RETN_TERM_28 RETN_TERM_29
+  RETN_TERM_30 RETN_TERM_31 RETN_TERM_32 RETN_TERM_33 RETN_TERM_34
+  RETN_TERM_35 RETN_TERM_36 RETN_TERM_37 RETN_TERM_38 RETN_TERM_39
+  RETN_TERM_40 RETN_TERM_41 RETN_TERM_42 RETN_TERM_43 RETN_TERM_44
+  RETN_TERM_45 RETN_TERM_46 RETN_TERM_47 RETN_TERM_48 RETN_TERM_49
+  RETN_TERM_50 RETN_TERM_51 RETN_TERM_52 RETN_TERM_53 RETN_TERM_54
+  RETN_TERM_55 RETN_TERM_56 RETN_TERM_57 RETN_TERM_58 RETN_TERM_59
+  RETN_TERM_60 RETN_TERM_61 RETN_TERM_62 RETN_TERM_63 RET_0 RET_1 RET_2 RET_3
+  RET_4 RET_5 RET_6 RET_7 RET_8 RET_9 RET_10 RET_11 RET_12 RET_13 RET_14
+  RET_15 RET_16 RET_17 RET_18 RET_19 RET_20 RET_21 RET_22 RET_23 RET_24
+  RET_25 RET_26 RET_27 RET_28 RET_29 RET_30 RET_31 RET_32 RET_33 RET_34
+  RET_35 RET_36 RET_37 RET_38 RET_39 RET_40 RET_41 RET_42 RET_43 RET_44
+  RET_45 RET_46 RET_47 RET_48 RET_49 RET_50 RET_51 RET_52 RET_53 RET_54
+  RET_55 RET_56 RET_57 RET_58 RET_59 RET_60 RET_61 RET_62 RET_63 TIELOW WEI
+  WEN VSSE VDDPE VDDCE
** icache_data_storeBR64FPIO8B1: 758 flat devices **
XBOTCTRL AI0 AI0N AI1 AI1N AI2N AI3N AI4N AI5 AI5N AI6 AI6N AI7 AI7N AI8 AI8N
+  AI9 AI9N AI10 AI10N AI11 AI11N AI12N AI13N CEI CEN CLK EMA0 EMA1 EMA2 IRET
+  IRETN RETN CREN TIELOW WEI WEN VSSE VDDPE VDDCE
+  icache_data_storeFPBCTRL64M4
XLEFTIOROW BWEI_31 BWEI_30 BWEI_29 BWEI_28 BWEI_27 BWEI_26 BWEI_25 BWEI_24
+  BWEI_23 BWEI_22 BWEI_21 BWEI_20 BWEI_19 BWEI_18 BWEI_17 BWEI_16 BWEI_15
+  BWEI_14 BWEI_13 BWEI_12 BWEI_11 BWEI_10 BWEI_9 BWEI_8 BWEI_7 BWEI_6 BWEI_5
+  BWEI_4 BWEI_3 BWEI_2 BWEI_1 BWEI_0 BWEN_31 BWEN_30 BWEN_29 BWEN_28 BWEN_27
+  BWEN_26 BWEN_25 BWEN_24 BWEN_23 BWEN_22 BWEN_21 BWEN_20 BWEN_19 BWEN_18
+  BWEN_17 BWEN_16 BWEN_15 BWEN_14 BWEN_13 BWEN_12 BWEN_11 BWEN_10 BWEN_9
+  BWEN_8 BWEN_7 BWEN_6 BWEN_5 BWEN_4 BWEN_3 BWEN_2 BWEN_1 BWEN_0 CREN DNI_31
+  DNI_30 DNI_29 DNI_28 DNI_27 DNI_26 DNI_25 DNI_24 DNI_23 DNI_22 DNI_21
+  DNI_20 DNI_19 DNI_18 DNI_17 DNI_16 DNI_15 DNI_14 DNI_13 DNI_12 DNI_11
+  DNI_10 DNI_9 DNI_8 DNI_7 DNI_6 DNI_5 DNI_4 DNI_3 DNI_2 DNI_1 DNI_0 D_31
+  D_30 D_29 D_28 D_27 D_26 D_25 D_24 D_23 D_22 D_21 D_20 D_19 D_18 D_17 D_16
+  D_15 D_14 D_13 D_12 D_11 D_10 D_9 D_8 D_7 D_6 D_5 D_4 D_3 D_2 D_1 D_0 Q_31
+  Q_30 Q_29 Q_28 Q_27 Q_26 Q_25 Q_24 Q_23 Q_22 Q_21 Q_20 Q_19 Q_18 Q_17 Q_16
+  Q_15 Q_14 Q_13 Q_12 Q_11 Q_10 Q_9 Q_8 Q_7 Q_6 Q_5 Q_4 Q_3 Q_2 Q_1 Q_0 Q__31
+  Q__30 Q__29 Q__28 Q__27 Q__26 Q__25 Q__24 Q__23 Q__22 Q__21 Q__20 Q__19
+  Q__18 Q__17 Q__16 Q__15 Q__14 Q__13 Q__12 Q__11 Q__10 Q__9 Q__8 Q__7 Q__6
+  Q__5 Q__4 Q__3 Q__2 Q__1 Q__0 RETN_TERM_31 RETN_TERM_30 RETN_TERM_29
+  RETN_TERM_28 RETN_TERM_27 RETN_TERM_26 RETN_TERM_25 RETN_TERM_24
+  RETN_TERM_23 RETN_TERM_22 RETN_TERM_21 RETN_TERM_20 RETN_TERM_19
+  RETN_TERM_18 RETN_TERM_17 RETN_TERM_16 RETN_TERM_15 RETN_TERM_14
+  RETN_TERM_13 RETN_TERM_12 RETN_TERM_11 RETN_TERM_10 RETN_TERM_9 RETN_TERM_8
+  RETN_TERM_7 RETN_TERM_6 RETN_TERM_5 RETN_TERM_4 RETN_TERM_3 RETN_TERM_2
+  RETN_TERM_1 RETN_TERM_0 RET_31 RET_30 RET_29 RET_28 RET_27 RET_26 RET_25
+  RET_24 RET_23 RET_22 RET_21 RET_20 RET_19 RET_18 RET_17 RET_16 RET_15
+  RET_14 RET_13 RET_12 RET_11 RET_10 RET_9 RET_8 RET_7 RET_6 RET_5 RET_4
+  RET_3 RET_2 RET_1 RET_0 TIELOW VSSE VDDPE VDDCE
+  icache_data_storeFPIO8RL32B1
XRIGHTIOROW BWEI_32 BWEI_33 BWEI_34 BWEI_35 BWEI_36 BWEI_37 BWEI_38 BWEI_39
+  BWEI_40 BWEI_41 BWEI_42 BWEI_43 BWEI_44 BWEI_45 BWEI_46 BWEI_47 BWEI_48
+  BWEI_49 BWEI_50 BWEI_51 BWEI_52 BWEI_53 BWEI_54 BWEI_55 BWEI_56 BWEI_57
+  BWEI_58 BWEI_59 BWEI_60 BWEI_61 BWEI_62 BWEI_63 BWEN_32 BWEN_33 BWEN_34
+  BWEN_35 BWEN_36 BWEN_37 BWEN_38 BWEN_39 BWEN_40 BWEN_41 BWEN_42 BWEN_43
+  BWEN_44 BWEN_45 BWEN_46 BWEN_47 BWEN_48 BWEN_49 BWEN_50 BWEN_51 BWEN_52
+  BWEN_53 BWEN_54 BWEN_55 BWEN_56 BWEN_57 BWEN_58 BWEN_59 BWEN_60 BWEN_61
+  BWEN_62 BWEN_63 CREN DNI_32 DNI_33 DNI_34 DNI_35 DNI_36 DNI_37 DNI_38
+  DNI_39 DNI_40 DNI_41 DNI_42 DNI_43 DNI_44 DNI_45 DNI_46 DNI_47 DNI_48
+  DNI_49 DNI_50 DNI_51 DNI_52 DNI_53 DNI_54 DNI_55 DNI_56 DNI_57 DNI_58
+  DNI_59 DNI_60 DNI_61 DNI_62 DNI_63 D_32 D_33 D_34 D_35 D_36 D_37 D_38 D_39
+  D_40 D_41 D_42 D_43 D_44 D_45 D_46 D_47 D_48 D_49 D_50 D_51 D_52 D_53 D_54
+  D_55 D_56 D_57 D_58 D_59 D_60 D_61 D_62 D_63 Q_32 Q_33 Q_34 Q_35 Q_36 Q_37
+  Q_38 Q_39 Q_40 Q_41 Q_42 Q_43 Q_44 Q_45 Q_46 Q_47 Q_48 Q_49 Q_50 Q_51 Q_52
+  Q_53 Q_54 Q_55 Q_56 Q_57 Q_58 Q_59 Q_60 Q_61 Q_62 Q_63 Q__32 Q__33 Q__34
+  Q__35 Q__36 Q__37 Q__38 Q__39 Q__40 Q__41 Q__42 Q__43 Q__44 Q__45 Q__46
+  Q__47 Q__48 Q__49 Q__50 Q__51 Q__52 Q__53 Q__54 Q__55 Q__56 Q__57 Q__58
+  Q__59 Q__60 Q__61 Q__62 Q__63 RETN_TERM_32 RETN_TERM_33 RETN_TERM_34
+  RETN_TERM_35 RETN_TERM_36 RETN_TERM_37 RETN_TERM_38 RETN_TERM_39
+  RETN_TERM_40 RETN_TERM_41 RETN_TERM_42 RETN_TERM_43 RETN_TERM_44
+  RETN_TERM_45 RETN_TERM_46 RETN_TERM_47 RETN_TERM_48 RETN_TERM_49
+  RETN_TERM_50 RETN_TERM_51 RETN_TERM_52 RETN_TERM_53 RETN_TERM_54
+  RETN_TERM_55 RETN_TERM_56 RETN_TERM_57 RETN_TERM_58 RETN_TERM_59
+  RETN_TERM_60 RETN_TERM_61 RETN_TERM_62 RETN_TERM_63 RET_32 RET_33 RET_34
+  RET_35 RET_36 RET_37 RET_38 RET_39 RET_40 RET_41 RET_42 RET_43 RET_44
+  RET_45 RET_46 RET_47 RET_48 RET_49 RET_50 RET_51 RET_52 RET_53 RET_54
+  RET_55 RET_56 RET_57 RET_58 RET_59 RET_60 RET_61 RET_62 RET_63 TIELOW VSSE
+  VDDPE VDDCE icache_data_storeFPIO8RR32B1
.ENDS icache_data_storeBR64FPIO8B1
****
.SUBCKT icache_data_storeIO4 BLTERM0 BLTERM0_ BLTERM1 BLTERM1_ BLTERM2
+  BLTERM2_ BLTERM3 BLTERM3_ BWEI CE_WE CREN CRENA CRENB CRENI DNI FIOGTP GDL
+  GDLA GDLA_ GDLB GDLB_ GDLI GDLI_ GDL_ IODL IODL_ IOGTP IRET IRETN Q_ RDEN
+  TIEHIGH TIELOW WE WEA WEB WEI YI YP1_0 YP1_1 YP1_2 YP1_3 YSN YSNA YSNB YSNI
+  VSSE VDDPE VDDCE
** icache_data_storeIO4: 178 flat devices **
M0 HNET125 NET362 VSSE VSSE NCH W=0.5U L=0.06U M=1 $name=/gpreg/N11
M1 NET345 YSEL HNET125 VSSE NCH W=0.5U L=0.06U M=1 $name=/gpreg/N10
M10 VDDPE NET364 NET348 VDDCE PCH W=1U L=0.06U M=1 $name=/gpnand/P10
M100 NET518 NET408 VSSE VSSE NCH W=0.4U L=0.06U M=1 $name=/tgdlpdkp/N00
M101 IODW_ WE NET518 VSSE NCH W=1.5U L=0.06U M=1 $name=/tgdlnpgn/N00
M102 VSSE NET518 IODL VSSE NCH W=3U L=0.06U M=1 $name=/tgdldrvn/N00
M103 NET384 NET364 WEI VSSE NCH W=1U L=0.06U M=1 $name=/N9/N00
M104 NET550 NET408 VSSE VSSE NCH W=0.4U L=0.06U M=1 $name=/N43/N00
M105 NET384 NET362 WE VSSE NCH W=1U L=0.06U M=1 $name=/N4/N00
M106 VSSE NET550 IODL_ VSSE NCH W=3U L=0.06U M=1 $name=/N38/N00
M107 GDL NET537 IODL VSSE NCH W=3U L=0.06U M=1 $name=/N3/N00
M108 IODL NET540 GDLI VSSE NCH W=3U L=0.06U M=1 $name=/N2/N00
M109 NET545 QIE_N VSSE VSSE NCH W=1.08U L=0.06U M=1 $name=/N17/N00
M11 VDDPE YSEL NET348 VDDCE PCH W=1U L=0.06U M=1 $name=/gpnand/P00
M110 IODW WE NET547 VSSE NCH W=1.5U L=0.06U M=1 $name=/N12/N00
M111 IODW WE NET550 VSSE NCH W=1.5U L=0.06U M=1 $name=/N11/N00
M112 IODL_ NET537 GDL_ VSSE NCH W=3U L=0.06U M=1 $name=/N10/N00
M113 IODL_ NET540 GDLI_ VSSE NCH W=3U L=0.06U M=1 $name=/N0/N00
M114 HNET371 CREN VSSE VSSE NCH_HVT W=0.15U L=0.06U M=1 $name=/I244/N01
M115 NET559 CRENI HNET371 VSSE NCH_HVT W=0.15U L=0.06U M=1 $name=/I244/N00
M116 VDDPE CREN NET559 VDDCE PCH_HVT W=0.15U L=0.06U M=1 $name=/I244/P10
M117 VDDPE CRENI NET559 VDDCE PCH_HVT W=0.15U L=0.06U M=1 $name=/I244/P00
M118 YILOUT NET351 VSSE VSSE NCH W=0.15U L=0.06U M=1 $name=/I3/N00
M119 VDDPE NET351 YILOUT VDDCE PCH W=0.3U L=0.06U M=1 $name=/I3/P00
M12 NET575 NET339 VSSE VSSE NCH W=0.2U L=0.06U M=1 $name=/tiginvpredrv/N10
M120 NET563 YI VSSE VSSE NCH W=0.15U L=0.06U M=1 $name=/I1/N00
M121 VDDPE YI NET563 VDDCE PCH W=0.15U L=0.06U M=1 $name=/I1/P00
M122 WE WELOUTN VSSE VSSE NCH W=2U L=0.06U M=1 $name=/weidrv/N00
M123 VDDPE WELOUTN WE VDDCE PCH W=4U L=0.06U M=1 $name=/weidrv/P00
M124 NET567 BWEI VSSE VSSE NCH W=0.18U L=0.06U M=1 $name=/tweinv/N00
M125 VDDPE BWEI NET567 VDDCE PCH W=0.33U L=0.06U M=1 $name=/tweinv/P00
M126 NET569 IODL_ VSSE VSSE NCH W=0.36U L=0.06U M=1 $name=/tqbpu2drv/N00
M127 VDDPE IODL_ NET569 VDDCE PCH W=0.7U L=0.06U M=1 $name=/tqbpu2drv/P00
M128 QILAT Q_ VSSE VSSE NCH W=0.24U L=0.06U M=1 $name=/tqbfbinv/N00
M129 VDDPE Q_ QILAT VDDCE PCH W=0.47U L=0.06U M=1 $name=/tqbfbinv/P00
M13 NET575 RDEN VSSE VSSE NCH W=0.2U L=0.06U M=1 $name=/tiginvpredrv/N00